 LISTING FILE: sa00_flow.out
                         UNIT   6

 OPENING sa00_flow.bas
 FILE TYPE:BAS   UNIT   1

 OPENING sa00_flow.bcf
 FILE TYPE:BCF   UNIT  11

 OPENING sa00_flow.wel
 FILE TYPE:WEL   UNIT  16

 OPENING sa00_flow.drn
 FILE TYPE:DRN   UNIT  12

 OPENING sa00_flow.rch
 FILE TYPE:RCH   UNIT  13

 OPENING sa00_flow.oc
 FILE TYPE:OC   UNIT  22

 OPENING sa00_flow.hfb
 FILE TYPE:HFB   UNIT  17

 OPENING sa00_flow.wl5
 FILE TYPE:WL5   UNIT  21

 OPENING sa00_flow.pg5
 FILE TYPE:PG5   UNIT  19

 OPENING sa00_flow.ato
 FILE TYPE:ATO   UNIT  18

 OPENING sa00_flow.cw5
 FILE TYPE:DATA(BINARY)   UNIT 155

 OPENING sa00_flow.cbb
 FILE TYPE:DATA(BINARY)   UNIT  50

 OPENING sa00_flow.hds
 FILE TYPE:DATA(BINARY)   UNIT  30

 OPENING sa00_flow.ddn
 FILE TYPE:DATA(BINARY)   UNIT  31
1                          MODFLOW-SURFACT Version 4.0
      U.S. GEOLOGICAL SURVEY MODULAR FINITE-DIFFERENCE GROUND-WATER FLOW MODEL
    (HYDROGEOLOGIC'S ENHANCED VERSION OF USGS MODFLOW HYDROLOGIC MODELING SYSTEM)

 Lisbon MF6 Model                                                                                                                    
 2021                                                                                                                                
    12 LAYERS       279 ROWS       229 COLUMNS
       32 STRESS PERIOD(S) IN SIMULATION
 MODEL TIME UNIT IS DAYS
 CALCULATE FLOW BETWEEN ADJACENT CONSTANT-HEAD CELLS
***WARNING - IUNIT(12) IS SET TO 0 WHEN NEW ATO4 PACKAGE IS USED; IUNIT(12) DATA NOT REQUIRED

 I/O UNITS:
 ELEMENT OF IUNIT:   1   2   3   4   5   6   7   8   9  10  11  12  13  14  15  16  17  18  19  20
 PACKAGE NAME    : BCF WEL DRN RIV EVT TLK GHB RCH SIP DE4 SOR OC  PG4 STR PG2 HFB BTN LAK IBS CHD
         I/O UNIT:  11  16  12   0   0   0   0  13   0   0   0   0   0   0   0  17   0   0   0   0

 ELEMENT OF IUNIT:  21  22  23  24  25  26  27  28  29  30  31  32  33  34  35  36  37  38  39  40
 PACKAGE NAME    : FWL ATO PCN HCN OLF CHF PRL OBS GFD FHB IPT RCT SLC LMG PG5 RES WL5 SFR LK3 GAG
         I/O UNIT:   0  18   0   0   0   0   0   0   0   0   0   0   0   0  19   0  21   0   0   0

 ELEMENT OF IUNIT:  41  42  43  44  45  46
 PACKAGE NAME    : ET2 LUP SUB ZNB CFP TMP
         I/O UNIT:   0   0   0   0   0   0

 BAS5 -- BASIC MODEL PACKAGE, VERSION 5, 1/1/95 INPUT READ FROM UNIT  1
 ARRAYS RHS AND BUFF WILL HAVE SEPARATE MEMORY ALLOCATIONS
 INITIAL HEAD WILL BE KEPT THROUGHOUT THE SIMULATION
     10861586 ELEMENTS IN X ARRAY ARE USED BY BAS
     10861586 ELEMENTS OF X ARRAY USED
0ATO4 -- OUTPUT CONTROL PACKAGE WITH AUTO TIME STEP INPUT READ FROM UNIT 18
      20003 ELEMENTS IN X ARRAY ARE USED BY ATO4
   10881589 ELEMENTS OF X ARRAY USED

 BCF4 -- BLOCK-CENTERED FLOW PACKAGE, VERSION 4, 7/9/92 INPUT READ FROM UNIT 11
 TRANSIENT SIMULATION
 CELL-BY-CELL FLOWS WILL BE RECORDED ON UNIT 50
 HEAD AT CELLS THAT CONVERT TO DRY= -0.10000E+31
 WETTING CAPABILITY IS NOT ACTIVE
 CENTRAL DIFFERENCING USED FOR RELATIVE PERMEABILITY
 VERTICAL CONDUCTIVITY VALUES WILL BE READ IN BCF FILE
 ANISOTROPY WITHIN EACH LAYER IS UNIFORM
 RECTANGULAR MODFLOW GRID IS USED
      LAYER  AQUIFER TYPE    INTERBLOCK T
      -------------------------------------
         1         3        40-*PSEUDO-SOIL            
         2         3        40-*PSEUDO-SOIL            
         3         3        40-*PSEUDO-SOIL            
         4         3        40-*PSEUDO-SOIL            
         5         3        40-*PSEUDO-SOIL            
         6         3        40-*PSEUDO-SOIL            
         7         3        40-*PSEUDO-SOIL            
         8         3        40-*PSEUDO-SOIL            
         9         3        40-*PSEUDO-SOIL            
        10         3        40-*PSEUDO-SOIL            
        11         3        40-*PSEUDO-SOIL            
        12         3        40-*PSEUDO-SOIL            
 VARIABLY SATURATED FLOW OPTION IS USED FOR ALL LAYERS
  9200304 ELEMENTS IN X ARRAY ARE USED BY BCF
 20081893 ELEMENTS OF X ARRAY USED

 WL5 -- MULTI-NODE FRACTURE-WELL PACKAGE, VERSION 1, 04/22/05  INPUT READ FROM 21
 MAXIMUM OF       7MULTI-NODE FRACTURE WELLS
 WL5 - CELL-BY-CELL FLOWS WILL BE RECORDED ON UNIT155
 HEADS AT FWL5 NODES WILL NOT BE RECORDED
 FCONST5 IN 1/(LT) DIMENSIONS IS   0.323000E+11

     LSTART      LEND       ROW    COLUMN  ELEVATION    RADIUS        SP STRG   FWL #
 ------------------------------------------------------------------------------------
        10        10       228        77       0.000     1.000     0.000             1
        12        12       221        48       0.000     1.000     0.000             2
        12        12       226        79       0.000     1.000     0.000             3
        12        12       209        83       0.000     1.000     0.000             4
        12        12       220        45       0.000     1.000     0.000             5
        12        12       217        84       0.000     1.000     0.000             6
        12        12       213        86       0.000     1.000     0.000             7

 WEL1 -- WELL PACKAGE, VERSION 5, 9/1/93 INPUT READ FROM 16
 MAXIMUM OF  296 WELLS
 CELL-BY-CELL FLOWS WILL BE RECORDED ON UNIT 50
     1184 ELEMENTS IN X ARRAY ARE USED FOR WELLS
   20083077 ELEMENTS OF X ARRAY USED

 DRN1 -- DRAIN PACKAGE, VERSION 1, 9/1/87 INPUT READ FROM UNIT 12
 MAXIMUM OF  181 DRAINS
 CELL-BY-CELL FLOWS WILL BE RECORDED ON UNIT 50
      905 ELEMENTS IN X ARRAY ARE USED FOR DRAINS
   20083982 ELEMENTS OF X ARRAY USED

 RSF4 -- RECHARGE SEEPAGE FACE PACKAGE, 12/23/95  INPUT READ FROM UNIT 13
 OPTION 1 -- RECHARGE TO TOP LAYER
 CELL-BY-CELL FLOW TERMS WILL BE RECORDED ON UNIT 50
 MAXIMUM OF    0 SEEPAGE-FACE BOUNDARY NODES
 MAXIMUM OF    0 SEEPAGE-FACE BOUNDARY NODES
     127782 ELEMENTS OF X ARRAY USED FOR RSF4 PACKAGE
   20211764 ELEMENTS OF X ARRAY USED
0PCG5 -- ITERATIVE SPARSE MATRIX SOLVER, VERSION 01, 06/21/02 INPUT READ FROM UNIT 19
 MAXIMUM OF      30 CALLS OF SOLUTION ROUTINE
 MAXIMUM OF      15 INTERNAL ITERATIONS PER CALL TO SOLUTION ROUTINE
0

                                     SOLUTION BY ITERATIVE SPARSE MATRIX SOLVER
                                     -------------------------------------------
0                  MAXIMUM NUMBER OF CALLS TO PCG5 ROUTINE =       30
                       MAXIMUM ITERATIONS PER CALL TO PCG5 =       15
                 ONLY ACTIVE NODES INCLUDED IN THE SOLVER =        1
                        HEAD CHANGE CRITERION FOR CLOSURE =    0.10000E+00
                           SOLVER SUMMARY PRINTOUT INDEX  =        1
                             NATURAL ORDERING (0=OFF;1=ON) =        0
                                LEVEL OF ILU FACTORIZATION =        2
                                       ACCELERATION METHOD =        1
0FLOW SOLVER USES N-R METHOD
          BACKTRACKING INDEX (IBACKTR)  =        1
          BACKTRACKING FACTOR  (BFACT)  =    0.10000E+00
    RESIDUAL REDUCTION FACTOR (RESRED)  =    0.10000E+01
                                           INDEX FOR BOTTOM DAMPING (IDMPBOT) =         0
   80503691 ELEMENTS IN X ARRAY ARE USED BY PCG
  100715455 ELEMENTS OF X ARRAY USED
    3066796 ELEMENTS IN X ARRAY ARE USED FOR TRANSPORT
  103782251 ELEMENTS OF X ARRAY USED
0HFB1 -- HORIZONTAL FLOW BARRIER PACKAGE, VERSION 1, 06/13/86 INPUT READ FROM UNIT 17

          HORIZONTAL FLOW BARRIERS IN THE SUBSURFACE  (NHFB) =      1751
          HORIZONTAL FLOW BARRIERS ON THE SURFACE   (NHFBOL) =         0
   8755 ELEMENTS IN X ARRAY ARE USED FOR HORIZONTAL FLOW BARRIERS
  103791006 ELEMENTS OF X ARRAY USED
!!!X ARRAY Allocated for  103791017 Elements
!!!RX AND IR ARRAYS Allocated for         22 Elements

 BAS5 -- BASIC MODEL PACKAGE, VERSION 5, 1/1/95 INPUT READ FROM UNIT  1
1
 Lisbon MF6 Model                                                                                                                    
 2021                                                                                                                                



                     BOUNDARY ARRAY FOR LAYER   1
 READING ON UNIT   1 WITH FORMAT: (25I3)              



                     BOUNDARY ARRAY FOR LAYER   2
 READING ON UNIT   1 WITH FORMAT: (25I3)              



                     BOUNDARY ARRAY FOR LAYER   3
 READING ON UNIT   1 WITH FORMAT: (25I3)              



                     BOUNDARY ARRAY FOR LAYER   4
 READING ON UNIT   1 WITH FORMAT: (25I3)              



                     BOUNDARY ARRAY FOR LAYER   5
 READING ON UNIT   1 WITH FORMAT: (25I3)              



                     BOUNDARY ARRAY FOR LAYER   6
 READING ON UNIT   1 WITH FORMAT: (25I3)              



                     BOUNDARY ARRAY FOR LAYER   7
 READING ON UNIT   1 WITH FORMAT: (25I3)              



                     BOUNDARY ARRAY FOR LAYER   8
 READING ON UNIT   1 WITH FORMAT: (25I3)              



                     BOUNDARY ARRAY FOR LAYER   9
 READING ON UNIT   1 WITH FORMAT: (25I3)              



                     BOUNDARY ARRAY FOR LAYER  10
 READING ON UNIT   1 WITH FORMAT: (25I3)              



                     BOUNDARY ARRAY FOR LAYER  11
 READING ON UNIT   1 WITH FORMAT: (25I3)              



                     BOUNDARY ARRAY FOR LAYER  12
 READING ON UNIT   1 WITH FORMAT: (25I3)              
 
  NUMBER OF ACTIVE NODES IN BAS
     39415 FOR LAYER    1
     39415 FOR LAYER    2
     39415 FOR LAYER    3
     39415 FOR LAYER    4
     39415 FOR LAYER    5
     39415 FOR LAYER    6
     39415 FOR LAYER    7
     39415 FOR LAYER    8
     39415 FOR LAYER    9
     39415 FOR LAYER   10
     39415 FOR LAYER   11
     39415 FOR LAYER   12
  TOTAL NUMBER OF ACTIVE NODES =      472980

 AQUIFER HEAD WILL BE SET TO  99999.     AT ALL NO-FLOW NODES (IBOUND=0).

 DATUM ADJUSTMENT IS    0.00000    



                       INITIAL HEAD FOR LAYER   1
 READING ON UNIT   1 WITH FORMAT: (10e20.12)          



                       INITIAL HEAD FOR LAYER   2
 READING ON UNIT   1 WITH FORMAT: (10e20.12)          



                       INITIAL HEAD FOR LAYER   3
 READING ON UNIT   1 WITH FORMAT: (10e20.12)          



                       INITIAL HEAD FOR LAYER   4
 READING ON UNIT   1 WITH FORMAT: (10e20.12)          



                       INITIAL HEAD FOR LAYER   5
 READING ON UNIT   1 WITH FORMAT: (10e20.12)          



                       INITIAL HEAD FOR LAYER   6
 READING ON UNIT   1 WITH FORMAT: (10e20.12)          



                       INITIAL HEAD FOR LAYER   7
 READING ON UNIT   1 WITH FORMAT: (10e20.12)          



                       INITIAL HEAD FOR LAYER   8
 READING ON UNIT   1 WITH FORMAT: (10e20.12)          



                       INITIAL HEAD FOR LAYER   9
 READING ON UNIT   1 WITH FORMAT: (10e20.12)          



                       INITIAL HEAD FOR LAYER  10
 READING ON UNIT   1 WITH FORMAT: (10e20.12)          



                       INITIAL HEAD FOR LAYER  11
 READING ON UNIT   1 WITH FORMAT: (10e20.12)          



                       INITIAL HEAD FOR LAYER  12
 READING ON UNIT   1 WITH FORMAT: (10e20.12)          
0ATO4 -- OUTPUT CONTROL PACKAGE WITH AUTO TIME STEP INPUT READ FROM UNIT 18

 OUTPUT CONTROL IS SPECIFIED EVERY TIME STEP
 HEAD PRINT FORMAT CODE IS   0    DRAWDOWN PRINT FORMAT CODE IS   0

 HEADS WILL BE SAVED ON UNIT 30    DRAWDOWNS WILL BE SAVED ON UNIT 31

 OUTPUT CONTROL IS SPECIFIED EVERY TIME STEP

 BCF4 -- BLOCK-CENTERED FLOW PACKAGE, VERSION 4, 7/9/92 INPUT READ FROM UNIT 11

 COLUMN TO ROW ANISOTROPY =   1.000000    



                               DELR
 READING ON UNIT  11 WITH FORMAT: (10E12.4)           
   100.00       100.00       100.00       100.00       100.00       100.00       100.00       100.00       100.00       100.00    
   100.00       100.00       100.00       100.00       100.00       100.00       100.00       100.00       100.00       100.00    
   100.00       100.00       100.00       100.00       100.00       100.00       100.00       100.00       100.00       100.00    
   100.00       100.00       100.00       100.00       100.00       100.00       100.00       100.00       100.00       100.00    
   100.00       100.00       100.00       100.00       100.00       100.00       100.00       100.00       100.00       100.00    
   100.00       100.00       100.00       100.00       100.00       100.00       100.00       100.00       100.00       100.00    
   100.00       100.00       100.00       100.00       100.00       100.00       100.00       100.00       100.00       100.00    
   100.00       100.00       100.00       100.00       100.00       100.00       100.00       100.00       100.00       100.00    
   100.00       100.00       100.00       100.00       100.00       100.00       100.00       100.00       100.00       100.00    
   100.00       100.00       100.00       100.00       100.00       100.00       100.00       100.00       100.00       100.00    
   100.00       100.00       100.00       100.00       100.00       100.00       100.00       100.00       100.00       100.00    
   100.00       100.00       100.00       100.00       100.00       100.00       100.00       100.00       100.00       100.00    
   100.00       100.00       100.00       100.00       100.00       100.00       100.00       100.00       100.00       100.00    
   100.00       100.00       100.00       100.00       100.00       100.00       100.00       100.00       100.00       144.00    
   208.00       300.00       300.00       300.00       300.00       300.00       300.00       300.00       300.00       300.00    
   300.00       300.00       300.00       300.00       300.00       300.00       300.00       300.00       300.00       300.00    
   300.00       300.00       300.00       300.00       300.00       300.00       300.00       300.00       300.00       300.00    
   300.00       300.00       300.00       300.00       300.00       300.00       300.00       300.00       300.00       300.00    
   300.00       300.00       300.00       300.00       300.00       300.00       300.00       300.00       300.00       300.00    
   300.00       300.00       300.00       300.00       300.00       300.00       300.00       300.00       300.00       300.00    
   300.00       300.00       300.00       300.00       300.00       300.00       300.00       300.00       300.00       300.00    
   300.00       300.00       300.00       300.00       300.00       300.00       300.00       300.00       300.00       300.00    
   300.00       300.00       300.00       300.00       300.00       300.00       300.00       100.00       100.00    



                               DELC
 READING ON UNIT  11 WITH FORMAT: (10E12.4)           
   100.00       100.00       100.00       100.00       100.00       100.00       100.00       100.00       100.00       100.00    
   100.00       100.00       100.00       100.00       100.00       100.00       100.00       100.00       100.00       100.00    
   100.00       100.00       100.00       100.00       100.00       100.00       100.00       100.00       100.00       300.00    
   300.00       300.00       300.00       300.00       300.00       300.00       300.00       300.00       300.00       300.00    
   300.00       300.00       300.00       300.00       300.00       300.00       300.00       300.00       300.00       300.00    
   300.00       200.00       100.00       100.00       100.00       100.00       100.00       100.00       100.00       100.00    
   100.00       100.00       100.00       100.00       100.00       100.00       100.00       100.00       100.00       100.00    
   100.00       100.00       100.00       100.00       100.00       100.00       100.00       100.00       100.00       100.00    
   100.00       100.00       100.00       100.00       100.00       100.00       100.00       100.00       100.00       100.00    
   100.00       100.00       100.00       100.00       100.00       100.00       100.00       100.00       100.00       100.00    
   100.00       100.00       100.00       100.00       100.00       100.00       100.00       100.00       100.00       100.00    
   100.00       100.00       100.00       100.00       100.00       100.00       100.00       100.00       100.00       100.00    
   100.00       100.00       100.00       100.00       100.00       100.00       100.00       100.00       100.00       100.00    
   100.00       100.00       100.00       100.00       100.00       100.00       100.00       100.00       100.00       100.00    
   100.00       100.00       100.00       100.00       100.00       100.00       100.00       100.00       100.00       100.00    
   100.00       100.00       100.00       100.00       100.00       100.00       100.00       100.00       100.00       100.00    
   100.00       100.00       100.00       100.00       100.00       100.00       100.00       100.00       100.00       100.00    
   100.00       100.00       100.00       100.00       100.00       100.00       100.00       100.00       100.00       100.00    
   100.00       100.00       100.00       100.00       100.00       100.00       100.00       100.00       100.00       100.00    
   100.00       100.00       100.00       100.00       100.00       100.00       100.00       100.00       100.00       100.00    
   100.00       100.00       100.00       100.00       100.00       100.00       100.00       100.00       100.00       100.00    
   100.00       100.00       100.00       100.00       100.00       100.00       100.00       100.00       100.00       100.00    
   100.00       100.00       100.00       100.00       100.00       100.00       100.00       100.00       100.00       100.00    
   100.00       100.00       100.00       100.00       100.00       100.00       100.00       100.00       100.00       100.00    
   100.00       100.00       100.00       100.00       100.00       100.00       100.00       100.00       100.00       100.00    
   100.00       100.00       144.00       208.00       300.00       300.00       300.00       300.00       300.00       300.00    
   300.00       300.00       300.00       300.00       300.00       300.00       300.00       300.00       300.00       300.00    
   300.00       300.00       300.00       300.00       100.00       100.00       100.00       100.00       100.00    



               PRIMARY STORAGE COEF FOR LAYER   1
 READING ON UNIT  11 WITH FORMAT: (10e20.12)          



              HYD. COND. ALONG ROWS FOR LAYER   1
 READING ON UNIT  11 WITH FORMAT: (10e20.12)          



           VERTICAL HYDRAULIC COND. FOR LAYER   1
 READING ON UNIT  11 WITH FORMAT: (10e20.12)          



                             BOTTOM FOR LAYER   1
 READING ON UNIT  11 WITH FORMAT: (10e20.12)          

   SECONDARY STORAGE COEF =  0.1000000     FOR LAYER   1



                                TOP FOR LAYER   1
 READING ON UNIT  11 WITH FORMAT: (10e20.12)          



               PRIMARY STORAGE COEF FOR LAYER   2
 READING ON UNIT  11 WITH FORMAT: (10e20.12)          



              HYD. COND. ALONG ROWS FOR LAYER   2
 READING ON UNIT  11 WITH FORMAT: (10e20.12)          



           VERTICAL HYDRAULIC COND. FOR LAYER   2
 READING ON UNIT  11 WITH FORMAT: (10e20.12)          



                             BOTTOM FOR LAYER   2
 READING ON UNIT  11 WITH FORMAT: (10e20.12)          

   SECONDARY STORAGE COEF =  0.1000000     FOR LAYER   2



                                TOP FOR LAYER   2
 READING ON UNIT  11 WITH FORMAT: (10e20.12)          



               PRIMARY STORAGE COEF FOR LAYER   3
 READING ON UNIT  11 WITH FORMAT: (10e20.12)          



              HYD. COND. ALONG ROWS FOR LAYER   3
 READING ON UNIT  11 WITH FORMAT: (10e20.12)          



           VERTICAL HYDRAULIC COND. FOR LAYER   3
 READING ON UNIT  11 WITH FORMAT: (10e20.12)          



                             BOTTOM FOR LAYER   3
 READING ON UNIT  11 WITH FORMAT: (10e20.12)          

   SECONDARY STORAGE COEF =  0.1000000     FOR LAYER   3



                                TOP FOR LAYER   3
 READING ON UNIT  11 WITH FORMAT: (10e20.12)          



               PRIMARY STORAGE COEF FOR LAYER   4
 READING ON UNIT  11 WITH FORMAT: (10e20.12)          



              HYD. COND. ALONG ROWS FOR LAYER   4
 READING ON UNIT  11 WITH FORMAT: (10e20.12)          



           VERTICAL HYDRAULIC COND. FOR LAYER   4
 READING ON UNIT  11 WITH FORMAT: (10e20.12)          



                             BOTTOM FOR LAYER   4
 READING ON UNIT  11 WITH FORMAT: (10e20.12)          

   SECONDARY STORAGE COEF =  0.1000000     FOR LAYER   4



                                TOP FOR LAYER   4
 READING ON UNIT  11 WITH FORMAT: (10e20.12)          



               PRIMARY STORAGE COEF FOR LAYER   5
 READING ON UNIT  11 WITH FORMAT: (10e20.12)          



              HYD. COND. ALONG ROWS FOR LAYER   5
 READING ON UNIT  11 WITH FORMAT: (10e20.12)          



           VERTICAL HYDRAULIC COND. FOR LAYER   5
 READING ON UNIT  11 WITH FORMAT: (10e20.12)          



                             BOTTOM FOR LAYER   5
 READING ON UNIT  11 WITH FORMAT: (10e20.12)          

   SECONDARY STORAGE COEF =  0.1000000     FOR LAYER   5



                                TOP FOR LAYER   5
 READING ON UNIT  11 WITH FORMAT: (10e20.12)          



               PRIMARY STORAGE COEF FOR LAYER   6
 READING ON UNIT  11 WITH FORMAT: (10e20.12)          



              HYD. COND. ALONG ROWS FOR LAYER   6
 READING ON UNIT  11 WITH FORMAT: (10e20.12)          



           VERTICAL HYDRAULIC COND. FOR LAYER   6
 READING ON UNIT  11 WITH FORMAT: (10e20.12)          



                             BOTTOM FOR LAYER   6
 READING ON UNIT  11 WITH FORMAT: (10e20.12)          

   SECONDARY STORAGE COEF =  0.1000000     FOR LAYER   6



                                TOP FOR LAYER   6
 READING ON UNIT  11 WITH FORMAT: (10e20.12)          



               PRIMARY STORAGE COEF FOR LAYER   7
 READING ON UNIT  11 WITH FORMAT: (10e20.12)          



              HYD. COND. ALONG ROWS FOR LAYER   7
 READING ON UNIT  11 WITH FORMAT: (10e20.12)          



           VERTICAL HYDRAULIC COND. FOR LAYER   7
 READING ON UNIT  11 WITH FORMAT: (10e20.12)          



                             BOTTOM FOR LAYER   7
 READING ON UNIT  11 WITH FORMAT: (10e20.12)          

   SECONDARY STORAGE COEF =  0.1000000     FOR LAYER   7



                                TOP FOR LAYER   7
 READING ON UNIT  11 WITH FORMAT: (10e20.12)          



               PRIMARY STORAGE COEF FOR LAYER   8
 READING ON UNIT  11 WITH FORMAT: (10e20.12)          



              HYD. COND. ALONG ROWS FOR LAYER   8
 READING ON UNIT  11 WITH FORMAT: (10e20.12)          



           VERTICAL HYDRAULIC COND. FOR LAYER   8
 READING ON UNIT  11 WITH FORMAT: (10e20.12)          



                             BOTTOM FOR LAYER   8
 READING ON UNIT  11 WITH FORMAT: (10e20.12)          

   SECONDARY STORAGE COEF =  0.1000000     FOR LAYER   8



                                TOP FOR LAYER   8
 READING ON UNIT  11 WITH FORMAT: (10e20.12)          



               PRIMARY STORAGE COEF FOR LAYER   9
 READING ON UNIT  11 WITH FORMAT: (10e20.12)          



              HYD. COND. ALONG ROWS FOR LAYER   9
 READING ON UNIT  11 WITH FORMAT: (10e20.12)          



           VERTICAL HYDRAULIC COND. FOR LAYER   9
 READING ON UNIT  11 WITH FORMAT: (10e20.12)          



                             BOTTOM FOR LAYER   9
 READING ON UNIT  11 WITH FORMAT: (10e20.12)          

   SECONDARY STORAGE COEF =  0.1000000     FOR LAYER   9



                                TOP FOR LAYER   9
 READING ON UNIT  11 WITH FORMAT: (10e20.12)          



               PRIMARY STORAGE COEF FOR LAYER  10
 READING ON UNIT  11 WITH FORMAT: (10e20.12)          



              HYD. COND. ALONG ROWS FOR LAYER  10
 READING ON UNIT  11 WITH FORMAT: (10e20.12)          



           VERTICAL HYDRAULIC COND. FOR LAYER  10
 READING ON UNIT  11 WITH FORMAT: (10e20.12)          



                             BOTTOM FOR LAYER  10
 READING ON UNIT  11 WITH FORMAT: (10e20.12)          

   SECONDARY STORAGE COEF =  0.1000000     FOR LAYER  10



                                TOP FOR LAYER  10
 READING ON UNIT  11 WITH FORMAT: (10e20.12)          



               PRIMARY STORAGE COEF FOR LAYER  11
 READING ON UNIT  11 WITH FORMAT: (10e20.12)          



              HYD. COND. ALONG ROWS FOR LAYER  11
 READING ON UNIT  11 WITH FORMAT: (10e20.12)          



           VERTICAL HYDRAULIC COND. FOR LAYER  11
 READING ON UNIT  11 WITH FORMAT: (10e20.12)          



                             BOTTOM FOR LAYER  11
 READING ON UNIT  11 WITH FORMAT: (10e20.12)          

   SECONDARY STORAGE COEF =  0.1000000     FOR LAYER  11



                                TOP FOR LAYER  11
 READING ON UNIT  11 WITH FORMAT: (10e20.12)          



               PRIMARY STORAGE COEF FOR LAYER  12
 READING ON UNIT  11 WITH FORMAT: (10e20.12)          



              HYD. COND. ALONG ROWS FOR LAYER  12
 READING ON UNIT  11 WITH FORMAT: (10e20.12)          



           VERTICAL HYDRAULIC COND. FOR LAYER  12
 READING ON UNIT  11 WITH FORMAT: (10e20.12)          



                             BOTTOM FOR LAYER  12
 READING ON UNIT  11 WITH FORMAT: (10e20.12)          

   SECONDARY STORAGE COEF =  0.1000000     FOR LAYER  12



                                TOP FOR LAYER  12
 READING ON UNIT  11 WITH FORMAT: (10e20.12)          
 integer workspace used:      7447526
0HFB1 -- HORIZONTAL FLOW BARRIER PACKAGE, VERSION 1, 06/13/86 INPUT READ FROM UNIT 17



 HORIZONTAL FLOW BARRIERS -- LISTED BY LAYERS.  WITHIN EACH LAYER, THE LOCATION OF A BARRIER IS IDENTIFIED BY
 THE 2 CELLS ON BOTH SIDES OF THE BARRIER.  THE ROW AND COLUMN NUMBER OF THE TWO CELLS ARE RESPECTIVELY 
 IROW1, ICOL1, AND IROW2, ICOL2.
0   46 HORIZONTAL FLOW BARRIERS IN LAYER    1
                     IROW1     ICOL1     IROW2     ICOL2  HYD. COND./WIDTH  BARRIER NO.
                     -----------------------------------------------------------------------
                       62        35        62        34       0.1000E-07          1
                       63        35        63        34       0.1000E-07          2
                       64        35        65        35       0.1000E-07          3
                       64        35        64        34       0.1000E-07          4
                       65        36        65        35       0.1000E-07          5
                       66        36        66        35       0.1000E-07          6
                       67        36        68        36       0.1000E-07          7
                       67        36        67        35       0.1000E-07          8
                       68        37        68        36       0.1000E-07          9
                       69        37        69        36       0.1000E-07         10
                       70        37        71        37       0.1000E-07         11
                       70        37        70        36       0.1000E-07         12
                       95        44        95        43       0.1000E-04         13
                       96        44        96        43       0.1000E-04         14
                       97        44        97        43       0.1000E-04         15
                       98        44        98        43       0.1000E-04         16
                       99        44        99        43       0.1000E-04         17
                      100        44       100        43       0.1000E-04         18
                      101        44       101        43       0.1000E-04         19
                      102        44       102        43       0.1000E-04         20
                      103        44       103        43       0.1000E-04         21
                      104        44       104        43       0.1000E-04         22
                      105        44       105        43       0.1000E-04         23
                      133        58       133        57       0.1000E-07         24
                      134        58       134        57       0.1000E-07         25
                      135        58       135        57       0.1000E-07         26
                      136        57       136        58       0.1000E-07         27
                      137        57       137        58       0.1000E-07         28
                      138        57       139        57       0.1000E-07         29
                      138        57       138        58       0.1000E-07         30
                      139        56       139        57       0.1000E-07         31
                      140        38       140        37       0.1000E-04         32
                      141        38       141        37       0.1000E-04         33
                      142        38       142        37       0.1000E-04         34
                      143        37       142        37       0.1000E-04         35
                      143        37       143        36       0.1000E-04         36
                      144        37       144        36       0.1000E-04         37
                      145        37       145        36       0.1000E-04         38
                      146        36       145        36       0.1000E-04         39
                      146        36       146        35       0.1000E-04         40
                      147        36       147        35       0.1000E-04         41
                      148        36       148        35       0.1000E-04         42
                      149        36       149        35       0.1000E-04         43
                      150        35       149        35       0.1000E-04         44
                      150        35       150        34       0.1000E-04         45
                      151        35       151        34       0.1000E-04         46
0  155 HORIZONTAL FLOW BARRIERS IN LAYER    2
                     IROW1     ICOL1     IROW2     ICOL2  HYD. COND./WIDTH  BARRIER NO.
                     -----------------------------------------------------------------------
                       62        35        62        34       0.1000E-07         47
                       63        35        63        34       0.1000E-07         48
                       64        35        65        35       0.1000E-07         49
                       64        35        64        34       0.1000E-07         50
                       65        36        65        35       0.1000E-07         51
                       66        36        66        35       0.1000E-07         52
                       67        36        68        36       0.1000E-07         53
                       67        36        67        35       0.1000E-07         54
                       68        37        68        36       0.1000E-07         55
                       69        37        69        36       0.1000E-07         56
                       70        37        71        37       0.1000E-07         57
                       70        37        70        36       0.1000E-07         58
                       95        44        95        43       0.1000E-04         59
                       96        44        96        43       0.1000E-04         60
                       97        44        97        43       0.1000E-04         61
                       98        44        98        43       0.1000E-04         62
                       99        44        99        43       0.1000E-04         63
                      100        44       100        43       0.1000E-04         64
                      101        44       101        43       0.1000E-04         65
                      102        44       102        43       0.1000E-04         66
                      102        61       102        62       0.1000E-07         67
                      103        44       103        43       0.1000E-04         68
                      103        61       103        62       0.1000E-07         69
                      104        44       104        43       0.1000E-04         70
                      104        61       104        62       0.1000E-07         71
                      105        44       105        43       0.1000E-04         72
                      105        61       105        62       0.1000E-07         73
                      106        44       106        43       0.1000E-04         74
                      106        61       106        62       0.1000E-07         75
                      107        44       107        43       0.1000E-04         76
                      107        61       108        61       0.1000E-07         77
                      107        61       107        62       0.1000E-07         78
                      108        44       108        43       0.1000E-04         79
                      108        60       108        61       0.1000E-07         80
                      109        44       109        43       0.1000E-04         81
                      109        60       109        61       0.1000E-07         82
                      110        44       110        43       0.1000E-04         83
                      110        60       111        60       0.1000E-07         84
                      110        60       110        61       0.1000E-07         85
                      111        44       111        43       0.1000E-04         86
                      111        59       111        60       0.1000E-07         87
                      112        44       112        43       0.1000E-04         88
                      112        59       112        60       0.1000E-07         89
                      113        44       113        43       0.1000E-04         90
                      113        59       114        59       0.1000E-07         91
                      113        59       113        60       0.1000E-07         92
                      114        44       114        43       0.1000E-04         93
                      114        58       114        59       0.1000E-07         94
                      115        44       115        43       0.1000E-04         95
                      115        58       115        59       0.1000E-07         96
                      116        44       116        43       0.1000E-04         97
                      116        58       116        59       0.1000E-07         98
                      117        44       117        43       0.1000E-04         99
                      117        58       117        59       0.1000E-07        100
                      118        44       118        43       0.1000E-04        101
                      118        58       118        59       0.1000E-07        102
                      119        43       118        43       0.1000E-04        103
                      119        43       119        42       0.1000E-04        104
                      119        58       119        59       0.1000E-07        105
                      120        43       120        42       0.1000E-04        106
                      120        58       120        59       0.1000E-07        107
                      121        43       121        42       0.1000E-04        108
                      121        58       121        59       0.1000E-07        109
                      122        42       123        42       0.1000E-04        110
                      122        42       122        43       0.1000E-04        111
                      122        58       122        59       0.1000E-07        112
                      123        42       123        41       0.1000E-04        113
                      123        58       123        59       0.1000E-07        114
                      124        42       124        41       0.1000E-04        115
                      124        58       124        59       0.1000E-07        116
                      125        41       124        41       0.1000E-04        117
                      125        41       125        40       0.1000E-04        118
                      125        58       125        59       0.1000E-07        119
                      126        41       126        40       0.1000E-04        120
                      126        58       126        57       0.1000E-07        121
                      126        58       125        58       0.1000E-07        122
                      127        40       126        40       0.1000E-04        123
                      127        40       127        39       0.1000E-04        124
                      127        58       127        57       0.1000E-07        125
                      128        40       128        39       0.1000E-04        126
                      128        58       128        57       0.1000E-07        127
                      129        40       129        39       0.1000E-04        128
                      129        58       129        57       0.1000E-07        129
                      130        39       130        40       0.1000E-04        130
                      130        58       130        57       0.1000E-07        131
                      131        39       132        39       0.1000E-04        132
                      131        39       131        40       0.1000E-04        133
                      131        58       131        57       0.1000E-07        134
                      132        39       132        38       0.1000E-04        135
                      132        58       132        57       0.1000E-07        136
                      133        39       133        38       0.1000E-04        137
                      133        58       133        57       0.1000E-07        138
                      134        38       133        38       0.1000E-04        139
                      134        38       134        37       0.1000E-04        140
                      134        58       134        57       0.1000E-07        141
                      135        38       135        37       0.1000E-04        142
                      135        58       135        57       0.1000E-07        143
                      136        38       136        37       0.1000E-04        144
                      136        57       136        58       0.1000E-07        145
                      137        38       137        37       0.1000E-04        146
                      137        57       137        58       0.1000E-07        147
                      138        38       138        37       0.1000E-04        148
                      138        57       139        57       0.1000E-07        149
                      138        57       138        58       0.1000E-07        150
                      139        38       139        37       0.1000E-04        151
                      139        57       139        56       0.1000E-07        152
                      140        38       140        37       0.1000E-04        153
                      140        57       140        56       0.1000E-07        154
                      141        38       141        37       0.1000E-04        155
                      141        57       141        56       0.1000E-07        156
                      142        38       142        37       0.1000E-04        157
                      142        56       142        57       0.1000E-07        158
                      143        37       142        37       0.1000E-04        159
                      143        37       143        36       0.1000E-04        160
                      143        56       144        56       0.1000E-07        161
                      143        56       143        57       0.1000E-07        162
                      144        37       144        36       0.1000E-04        163
                      144        56       144        55       0.1000E-07        164
                      145        37       145        36       0.1000E-04        165
                      145        55       145        56       0.1000E-07        166
                      146        36       145        36       0.1000E-04        167
                      146        36       146        35       0.1000E-04        168
                      146        55       146        56       0.1000E-07        169
                      147        36       147        35       0.1000E-04        170
                      148        36       148        35       0.1000E-04        171
                      149        36       149        35       0.1000E-04        172
                      150        35       149        35       0.1000E-04        173
                      150        35       150        34       0.1000E-04        174
                      151        35       151        34       0.1000E-04        175
                      203        33       204        33       0.1000E-03        176
                      204        34       204        33       0.1000E-03        177
                      205        34       204        34       0.1000E-03        178
                      205        35       206        35       0.1000E-03        179
                      205        35       205        34       0.1000E-03        180
                      206        36       207        36       0.1000E-03        181
                      206        36       206        35       0.1000E-03        182
                      207        36       207        37       0.1000E-03        183
                      208        37       209        37       0.1000E-03        184
                      208        37       208        36       0.1000E-03        185
                      209        37       209        38       0.1000E-03        186
                      210        37       210        38       0.1000E-03        187
                      211        37       211        38       0.1000E-03        188
                      212        37       213        37       0.1000E-03        189
                      212        37       212        38       0.1000E-03        190
                      213        37       213        36       0.1000E-03        191
                      214        37       214        36       0.1000E-03        192
                      215        36       215        37       0.1000E-03        193
                      216        36       217        36       0.1000E-03        194
                      216        36       216        37       0.1000E-03        195
                      217        36       217        35       0.1000E-03        196
                      218        36       218        35       0.1000E-03        197
                      219        35       219        36       0.1000E-03        198
                      220        35       219        35       0.1000E-03        199
                      220        35       220        34       0.1000E-03        200
                      221        34       220        34       0.1000E-03        201
0  155 HORIZONTAL FLOW BARRIERS IN LAYER    3
                     IROW1     ICOL1     IROW2     ICOL2  HYD. COND./WIDTH  BARRIER NO.
                     -----------------------------------------------------------------------
                       95        44        95        43       0.1000E-04        202
                       96        44        96        43       0.1000E-04        203
                       97        44        97        43       0.1000E-04        204
                       98        44        98        43       0.1000E-04        205
                       99        44        99        43       0.1000E-04        206
                      100        44       100        43       0.1000E-04        207
                      101        44       101        43       0.1000E-04        208
                      102        44       102        43       0.1000E-04        209
                      102        61       102        62       0.1000E-07        210
                      103        44       103        43       0.1000E-04        211
                      103        61       103        62       0.1000E-07        212
                      104        44       104        43       0.1000E-04        213
                      104        61       104        62       0.1000E-07        214
                      105        44       105        43       0.1000E-04        215
                      105        61       105        62       0.1000E-07        216
                      106        44       106        43       0.1000E-04        217
                      106        61       106        62       0.1000E-07        218
                      107        44       107        43       0.1000E-04        219
                      107        61       108        61       0.1000E-07        220
                      107        61       107        62       0.1000E-07        221
                      108        44       108        43       0.1000E-04        222
                      108        60       108        61       0.1000E-07        223
                      109        44       109        43       0.1000E-04        224
                      109        60       109        61       0.1000E-07        225
                      110        44       110        43       0.1000E-04        226
                      110        60       111        60       0.1000E-07        227
                      110        60       110        61       0.1000E-07        228
                      111        44       111        43       0.1000E-04        229
                      111        59       111        60       0.1000E-07        230
                      112        44       112        43       0.1000E-04        231
                      112        59       112        60       0.1000E-07        232
                      113        44       113        43       0.1000E-04        233
                      113        59       114        59       0.1000E-07        234
                      113        59       113        60       0.1000E-07        235
                      114        44       114        43       0.1000E-04        236
                      114        58       114        59       0.1000E-07        237
                      115        44       115        43       0.1000E-04        238
                      115        58       115        59       0.1000E-07        239
                      116        44       116        43       0.1000E-04        240
                      116        58       116        59       0.1000E-07        241
                      117        44       117        43       0.1000E-04        242
                      117        58       117        59       0.1000E-07        243
                      118        44       118        43       0.1000E-04        244
                      118        58       118        59       0.1000E-07        245
                      119        43       118        43       0.1000E-04        246
                      119        43       119        42       0.1000E-04        247
                      119        58       119        59       0.1000E-07        248
                      120        43       120        42       0.1000E-04        249
                      120        58       120        59       0.1000E-07        250
                      121        43       121        42       0.1000E-04        251
                      121        58       121        59       0.1000E-07        252
                      122        42       123        42       0.1000E-04        253
                      122        42       122        43       0.1000E-04        254
                      122        58       122        59       0.1000E-07        255
                      123        42       123        41       0.1000E-04        256
                      123        58       123        59       0.1000E-07        257
                      124        42       124        41       0.1000E-04        258
                      124        58       124        59       0.1000E-07        259
                      125        41       124        41       0.1000E-04        260
                      125        41       125        40       0.1000E-04        261
                      125        58       125        59       0.1000E-07        262
                      126        41       126        40       0.1000E-04        263
                      126        58       126        57       0.1000E-07        264
                      126        58       125        58       0.1000E-07        265
                      127        40       126        40       0.1000E-04        266
                      127        40       127        39       0.1000E-04        267
                      127        58       127        57       0.1000E-07        268
                      128        40       128        39       0.1000E-04        269
                      128        58       128        57       0.1000E-07        270
                      129        40       129        39       0.1000E-04        271
                      129        58       129        57       0.1000E-07        272
                      130        39       130        40       0.1000E-04        273
                      130        58       130        57       0.1000E-07        274
                      131        39       132        39       0.1000E-04        275
                      131        39       131        40       0.1000E-04        276
                      131        58       131        57       0.1000E-07        277
                      132        39       132        38       0.1000E-04        278
                      132        58       132        57       0.1000E-07        279
                      133        39       133        38       0.1000E-04        280
                      133        58       133        57       0.1000E-07        281
                      134        38       133        38       0.1000E-04        282
                      134        38       134        37       0.1000E-04        283
                      134        58       134        57       0.1000E-07        284
                      135        38       135        37       0.1000E-04        285
                      135        58       135        57       0.1000E-07        286
                      136        38       136        37       0.1000E-04        287
                      136        57       136        58       0.1000E-07        288
                      137        38       137        37       0.1000E-04        289
                      137        57       137        58       0.1000E-07        290
                      138        38       138        37       0.1000E-04        291
                      138        57       139        57       0.1000E-07        292
                      138        57       138        58       0.1000E-07        293
                      139        38       139        37       0.1000E-04        294
                      139        57       139        56       0.1000E-07        295
                      140        38       140        37       0.1000E-04        296
                      140        57       140        56       0.1000E-07        297
                      141        38       141        37       0.1000E-04        298
                      141        57       141        56       0.1000E-07        299
                      142        38       142        37       0.1000E-04        300
                      142        56       142        57       0.1000E-07        301
                      143        37       142        37       0.1000E-04        302
                      143        37       143        36       0.1000E-04        303
                      143        56       144        56       0.1000E-07        304
                      143        56       143        57       0.1000E-07        305
                      144        37       144        36       0.1000E-04        306
                      144        56       144        55       0.1000E-07        307
                      145        37       145        36       0.1000E-04        308
                      145        55       145        56       0.1000E-07        309
                      146        36       145        36       0.1000E-04        310
                      146        36       146        35       0.1000E-04        311
                      146        55       146        56       0.1000E-07        312
                      147        36       147        35       0.1000E-04        313
                      148        36       148        35       0.1000E-04        314
                      149        36       149        35       0.1000E-04        315
                      150        35       149        35       0.1000E-04        316
                      150        35       150        34       0.1000E-04        317
                      151        35       151        34       0.1000E-04        318
                       70        37        71        37       0.1000E-07        319
                       70        37        70        36       0.1000E-07        320
                       69        37        69        36       0.1000E-07        321
                       68        37        68        36       0.1000E-07        322
                       67        36        68        36       0.1000E-07        323
                       67        36        67        35       0.1000E-07        324
                       66        36        66        35       0.1000E-07        325
                       65        36        65        35       0.1000E-07        326
                       64        35        65        35       0.1000E-07        327
                       64        35        64        34       0.1000E-07        328
                       63        35        63        34       0.1000E-07        329
                       62        35        62        34       0.1000E-07        330
                      203        33       204        33       0.1000E-03        331
                      204        34       204        33       0.1000E-03        332
                      205        34       204        34       0.1000E-03        333
                      205        35       206        35       0.1000E-03        334
                      205        35       205        34       0.1000E-03        335
                      206        36       207        36       0.1000E-03        336
                      206        36       206        35       0.1000E-03        337
                      207        36       207        37       0.1000E-03        338
                      208        37       209        37       0.1000E-03        339
                      208        37       208        36       0.1000E-03        340
                      209        37       209        38       0.1000E-03        341
                      210        37       210        38       0.1000E-03        342
                      211        37       211        38       0.1000E-03        343
                      212        37       213        37       0.1000E-03        344
                      212        37       212        38       0.1000E-03        345
                      213        37       213        36       0.1000E-03        346
                      214        37       214        36       0.1000E-03        347
                      215        36       215        37       0.1000E-03        348
                      216        36       217        36       0.1000E-03        349
                      216        36       216        37       0.1000E-03        350
                      217        36       217        35       0.1000E-03        351
                      218        36       218        35       0.1000E-03        352
                      219        35       219        36       0.1000E-03        353
                      220        35       219        35       0.1000E-03        354
                      220        35       220        34       0.1000E-03        355
                      221        34       220        34       0.1000E-03        356
0  155 HORIZONTAL FLOW BARRIERS IN LAYER    4
                     IROW1     ICOL1     IROW2     ICOL2  HYD. COND./WIDTH  BARRIER NO.
                     -----------------------------------------------------------------------
                       95        44        95        43       0.1000E-07        357
                       96        44        96        43       0.1000E-07        358
                       97        44        97        43       0.1000E-07        359
                       98        44        98        43       0.1000E-07        360
                       99        44        99        43       0.1000E-07        361
                      100        44       100        43       0.1000E-07        362
                      101        44       101        43       0.1000E-07        363
                      102        44       102        43       0.1000E-07        364
                      102        61       102        62       0.1000E-07        365
                      103        44       103        43       0.1000E-07        366
                      103        61       103        62       0.1000E-07        367
                      104        44       104        43       0.1000E-07        368
                      104        61       104        62       0.1000E-07        369
                      105        44       105        43       0.1000E-07        370
                      105        61       105        62       0.1000E-07        371
                      106        44       106        43       0.1000E-07        372
                      106        61       106        62       0.1000E-07        373
                      107        44       107        43       0.1000E-07        374
                      107        61       108        61       0.1000E-07        375
                      107        61       107        62       0.1000E-07        376
                      108        44       108        43       0.1000E-07        377
                      108        60       108        61       0.1000E-07        378
                      109        44       109        43       0.1000E-07        379
                      109        60       109        61       0.1000E-07        380
                      110        44       110        43       0.1000E-07        381
                      110        60       111        60       0.1000E-07        382
                      110        60       110        61       0.1000E-07        383
                      111        44       111        43       0.1000E-07        384
                      111        59       111        60       0.1000E-07        385
                      112        44       112        43       0.1000E-07        386
                      112        59       112        60       0.1000E-07        387
                      113        44       113        43       0.1000E-07        388
                      113        59       114        59       0.1000E-07        389
                      113        59       113        60       0.1000E-07        390
                      114        44       114        43       0.1000E-07        391
                      114        58       114        59       0.1000E-07        392
                      115        44       115        43       0.1000E-07        393
                      115        58       115        59       0.1000E-07        394
                      116        44       116        43       0.1000E-07        395
                      116        58       116        59       0.1000E-07        396
                      117        44       117        43       0.1000E-07        397
                      117        58       117        59       0.1000E-07        398
                      118        44       118        43       0.1000E-07        399
                      118        58       118        59       0.1000E-07        400
                      119        43       118        43       0.1000E-07        401
                      119        43       119        42       0.1000E-07        402
                      119        58       119        59       0.1000E-07        403
                      120        43       120        42       0.1000E-07        404
                      120        58       120        59       0.1000E-07        405
                      121        43       121        42       0.1000E-07        406
                      121        58       121        59       0.1000E-07        407
                      122        42       123        42       0.1000E-07        408
                      122        42       122        43       0.1000E-07        409
                      122        58       122        59       0.1000E-07        410
                      123        42       123        41       0.1000E-07        411
                      123        58       123        59       0.1000E-07        412
                      124        42       124        41       0.1000E-07        413
                      124        58       124        59       0.1000E-07        414
                      125        41       124        41       0.1000E-07        415
                      125        41       125        40       0.1000E-07        416
                      125        58       125        59       0.1000E-07        417
                      126        41       126        40       0.1000E-07        418
                      126        58       126        57       0.1000E-07        419
                      126        58       125        58       0.1000E-07        420
                      127        40       126        40       0.1000E-07        421
                      127        40       127        39       0.1000E-07        422
                      127        58       127        57       0.1000E-07        423
                      128        40       128        39       0.1000E-07        424
                      128        58       128        57       0.1000E-07        425
                      129        40       129        39       0.1000E-07        426
                      129        58       129        57       0.1000E-07        427
                      130        39       130        40       0.1000E-07        428
                      130        58       130        57       0.1000E-07        429
                      131        39       132        39       0.1000E-07        430
                      131        39       131        40       0.1000E-07        431
                      131        58       131        57       0.1000E-07        432
                      132        39       132        38       0.1000E-07        433
                      132        58       132        57       0.1000E-07        434
                      133        39       133        38       0.1000E-07        435
                      133        58       133        57       0.1000E-07        436
                      134        38       133        38       0.1000E-07        437
                      134        38       134        37       0.1000E-07        438
                      134        58       134        57       0.1000E-07        439
                      135        38       135        37       0.1000E-07        440
                      135        58       135        57       0.1000E-07        441
                      136        38       136        37       0.1000E-07        442
                      136        57       136        58       0.1000E-07        443
                      137        38       137        37       0.1000E-07        444
                      137        57       137        58       0.1000E-07        445
                      138        38       138        37       0.1000E-07        446
                      138        57       139        57       0.1000E-07        447
                      138        57       138        58       0.1000E-07        448
                      139        38       139        37       0.1000E-07        449
                      139        57       139        56       0.1000E-07        450
                      140        38       140        37       0.1000E-07        451
                      140        57       140        56       0.1000E-07        452
                      141        38       141        37       0.1000E-07        453
                      141        57       141        56       0.1000E-07        454
                      142        38       142        37       0.1000E-07        455
                      142        56       142        57       0.1000E-07        456
                      143        37       142        37       0.1000E-07        457
                      143        37       143        36       0.1000E-07        458
                      143        56       144        56       0.1000E-07        459
                      143        56       143        57       0.1000E-07        460
                      144        37       144        36       0.1000E-07        461
                      144        56       144        55       0.1000E-07        462
                      145        37       145        36       0.1000E-07        463
                      145        55       145        56       0.1000E-07        464
                      146        36       145        36       0.1000E-07        465
                      146        36       146        35       0.1000E-07        466
                      146        55       146        56       0.1000E-07        467
                      147        36       147        35       0.1000E-07        468
                      148        36       148        35       0.1000E-07        469
                      149        36       149        35       0.1000E-07        470
                      150        35       149        35       0.1000E-07        471
                      150        35       150        34       0.1000E-07        472
                      151        35       151        34       0.1000E-07        473
                       70        37        71        37       0.1000E-07        474
                       70        37        70        36       0.1000E-07        475
                       69        37        69        36       0.1000E-07        476
                       68        37        68        36       0.1000E-07        477
                       67        36        68        36       0.1000E-07        478
                       67        36        67        35       0.1000E-07        479
                       66        36        66        35       0.1000E-07        480
                       65        36        65        35       0.1000E-07        481
                       64        35        65        35       0.1000E-07        482
                       64        35        64        34       0.1000E-07        483
                       63        35        63        34       0.1000E-07        484
                       62        35        62        34       0.1000E-07        485
                      203        33       204        33       0.1000E-03        486
                      204        34       204        33       0.1000E-03        487
                      205        34       204        34       0.1000E-03        488
                      205        35       206        35       0.1000E-03        489
                      205        35       205        34       0.1000E-03        490
                      206        36       207        36       0.1000E-03        491
                      206        36       206        35       0.1000E-03        492
                      207        36       207        37       0.1000E-03        493
                      208        37       209        37       0.1000E-03        494
                      208        37       208        36       0.1000E-03        495
                      209        37       209        38       0.1000E-03        496
                      210        37       210        38       0.1000E-03        497
                      211        37       211        38       0.1000E-03        498
                      212        37       213        37       0.1000E-03        499
                      212        37       212        38       0.1000E-03        500
                      213        37       213        36       0.1000E-03        501
                      214        37       214        36       0.1000E-03        502
                      215        36       215        37       0.1000E-03        503
                      216        36       217        36       0.1000E-03        504
                      216        36       216        37       0.1000E-03        505
                      217        36       217        35       0.1000E-03        506
                      218        36       218        35       0.1000E-03        507
                      219        35       219        36       0.1000E-03        508
                      220        35       219        35       0.1000E-03        509
                      220        35       220        34       0.1000E-03        510
                      221        34       220        34       0.1000E-03        511
0  155 HORIZONTAL FLOW BARRIERS IN LAYER    5
                     IROW1     ICOL1     IROW2     ICOL2  HYD. COND./WIDTH  BARRIER NO.
                     -----------------------------------------------------------------------
                       95        44        95        43       0.1000E-07        512
                       96        44        96        43       0.1000E-07        513
                       97        44        97        43       0.1000E-07        514
                       98        44        98        43       0.1000E-07        515
                       99        44        99        43       0.1000E-07        516
                      100        44       100        43       0.1000E-07        517
                      101        44       101        43       0.1000E-07        518
                      102        44       102        43       0.1000E-07        519
                      102        61       102        62       0.1000E-07        520
                      103        44       103        43       0.1000E-07        521
                      103        61       103        62       0.1000E-07        522
                      104        44       104        43       0.1000E-07        523
                      104        61       104        62       0.1000E-07        524
                      105        44       105        43       0.1000E-07        525
                      105        61       105        62       0.1000E-07        526
                      106        44       106        43       0.1000E-07        527
                      106        61       106        62       0.1000E-07        528
                      107        44       107        43       0.1000E-07        529
                      107        61       108        61       0.1000E-07        530
                      107        61       107        62       0.1000E-07        531
                      108        44       108        43       0.1000E-07        532
                      108        60       108        61       0.1000E-07        533
                      109        44       109        43       0.1000E-07        534
                      109        60       109        61       0.1000E-07        535
                      110        44       110        43       0.1000E-07        536
                      110        60       111        60       0.1000E-07        537
                      110        60       110        61       0.1000E-07        538
                      111        44       111        43       0.1000E-07        539
                      111        59       111        60       0.1000E-07        540
                      112        44       112        43       0.1000E-07        541
                      112        59       112        60       0.1000E-07        542
                      113        44       113        43       0.1000E-07        543
                      113        59       114        59       0.1000E-07        544
                      113        59       113        60       0.1000E-07        545
                      114        44       114        43       0.1000E-07        546
                      114        58       114        59       0.1000E-07        547
                      115        44       115        43       0.1000E-07        548
                      115        58       115        59       0.1000E-07        549
                      116        44       116        43       0.1000E-07        550
                      116        58       116        59       0.1000E-07        551
                      117        44       117        43       0.1000E-07        552
                      117        58       117        59       0.1000E-07        553
                      118        44       118        43       0.1000E-07        554
                      118        58       118        59       0.1000E-07        555
                      119        43       118        43       0.1000E-07        556
                      119        43       119        42       0.1000E-07        557
                      119        58       119        59       0.1000E-07        558
                      120        43       120        42       0.1000E-07        559
                      120        58       120        59       0.1000E-07        560
                      121        43       121        42       0.1000E-07        561
                      121        58       121        59       0.1000E-07        562
                      122        42       123        42       0.1000E-07        563
                      122        42       122        43       0.1000E-07        564
                      122        58       122        59       0.1000E-07        565
                      123        42       123        41       0.1000E-07        566
                      123        58       123        59       0.1000E-07        567
                      124        42       124        41       0.1000E-07        568
                      124        58       124        59       0.1000E-07        569
                      125        41       124        41       0.1000E-07        570
                      125        41       125        40       0.1000E-07        571
                      125        58       125        59       0.1000E-07        572
                      126        41       126        40       0.1000E-07        573
                      126        58       126        57       0.1000E-07        574
                      126        58       125        58       0.1000E-07        575
                      127        40       126        40       0.1000E-07        576
                      127        40       127        39       0.1000E-07        577
                      127        58       127        57       0.1000E-07        578
                      128        40       128        39       0.1000E-07        579
                      128        58       128        57       0.1000E-07        580
                      129        40       129        39       0.1000E-07        581
                      129        58       129        57       0.1000E-07        582
                      130        39       130        40       0.1000E-07        583
                      130        58       130        57       0.1000E-07        584
                      131        39       132        39       0.1000E-07        585
                      131        39       131        40       0.1000E-07        586
                      131        58       131        57       0.1000E-07        587
                      132        39       132        38       0.1000E-07        588
                      132        58       132        57       0.1000E-07        589
                      133        39       133        38       0.1000E-07        590
                      133        58       133        57       0.1000E-07        591
                      134        38       133        38       0.1000E-07        592
                      134        38       134        37       0.1000E-07        593
                      134        58       134        57       0.1000E-07        594
                      135        38       135        37       0.1000E-07        595
                      135        58       135        57       0.1000E-07        596
                      136        38       136        37       0.1000E-07        597
                      136        57       136        58       0.1000E-07        598
                      137        38       137        37       0.1000E-07        599
                      137        57       137        58       0.1000E-07        600
                      138        38       138        37       0.1000E-07        601
                      138        57       139        57       0.1000E-07        602
                      138        57       138        58       0.1000E-07        603
                      139        38       139        37       0.1000E-07        604
                      139        57       139        56       0.1000E-07        605
                      140        38       140        37       0.1000E-07        606
                      140        57       140        56       0.1000E-07        607
                      141        38       141        37       0.1000E-07        608
                      141        57       141        56       0.1000E-07        609
                      142        38       142        37       0.1000E-07        610
                      142        56       142        57       0.1000E-07        611
                      143        37       142        37       0.1000E-07        612
                      143        37       143        36       0.1000E-07        613
                      143        56       144        56       0.1000E-07        614
                      143        56       143        57       0.1000E-07        615
                      144        37       144        36       0.1000E-07        616
                      144        56       144        55       0.1000E-07        617
                      145        37       145        36       0.1000E-07        618
                      145        55       145        56       0.1000E-07        619
                      146        36       145        36       0.1000E-07        620
                      146        36       146        35       0.1000E-07        621
                      146        55       146        56       0.1000E-07        622
                      147        36       147        35       0.1000E-07        623
                      148        36       148        35       0.1000E-07        624
                      149        36       149        35       0.1000E-07        625
                      150        35       149        35       0.1000E-07        626
                      150        35       150        34       0.1000E-07        627
                      151        35       151        34       0.1000E-07        628
                       70        37        71        37       0.1000E-07        629
                       70        37        70        36       0.1000E-07        630
                       69        37        69        36       0.1000E-07        631
                       68        37        68        36       0.1000E-07        632
                       67        36        68        36       0.1000E-07        633
                       67        36        67        35       0.1000E-07        634
                       66        36        66        35       0.1000E-07        635
                       65        36        65        35       0.1000E-07        636
                       64        35        65        35       0.1000E-07        637
                       64        35        64        34       0.1000E-07        638
                       63        35        63        34       0.1000E-07        639
                       62        35        62        34       0.1000E-07        640
                      203        33       204        33       0.1000E-03        641
                      204        34       204        33       0.1000E-03        642
                      205        34       204        34       0.1000E-03        643
                      205        35       206        35       0.1000E-03        644
                      205        35       205        34       0.1000E-03        645
                      206        36       207        36       0.1000E-03        646
                      206        36       206        35       0.1000E-03        647
                      207        36       207        37       0.1000E-03        648
                      208        37       209        37       0.1000E-03        649
                      208        37       208        36       0.1000E-03        650
                      209        37       209        38       0.1000E-03        651
                      210        37       210        38       0.1000E-03        652
                      211        37       211        38       0.1000E-03        653
                      212        37       213        37       0.1000E-03        654
                      212        37       212        38       0.1000E-03        655
                      213        37       213        36       0.1000E-03        656
                      214        37       214        36       0.1000E-03        657
                      215        36       215        37       0.1000E-03        658
                      216        36       217        36       0.1000E-03        659
                      216        36       216        37       0.1000E-03        660
                      217        36       217        35       0.1000E-03        661
                      218        36       218        35       0.1000E-03        662
                      219        35       219        36       0.1000E-03        663
                      220        35       219        35       0.1000E-03        664
                      220        35       220        34       0.1000E-03        665
                      221        34       220        34       0.1000E-03        666
0  155 HORIZONTAL FLOW BARRIERS IN LAYER    6
                     IROW1     ICOL1     IROW2     ICOL2  HYD. COND./WIDTH  BARRIER NO.
                     -----------------------------------------------------------------------
                       95        44        95        43       0.1000E-07        667
                       96        44        96        43       0.1000E-07        668
                       97        44        97        43       0.1000E-07        669
                       98        44        98        43       0.1000E-07        670
                       99        44        99        43       0.1000E-07        671
                      100        44       100        43       0.1000E-07        672
                      101        44       101        43       0.1000E-07        673
                      102        44       102        43       0.1000E-07        674
                      102        61       102        62       0.1000E-07        675
                      103        44       103        43       0.1000E-07        676
                      103        61       103        62       0.1000E-07        677
                      104        44       104        43       0.1000E-07        678
                      104        61       104        62       0.1000E-07        679
                      105        44       105        43       0.1000E-07        680
                      105        61       105        62       0.1000E-07        681
                      106        44       106        43       0.1000E-07        682
                      106        61       106        62       0.1000E-07        683
                      107        44       107        43       0.1000E-07        684
                      107        61       108        61       0.1000E-07        685
                      107        61       107        62       0.1000E-07        686
                      108        44       108        43       0.1000E-07        687
                      108        60       108        61       0.1000E-07        688
                      109        44       109        43       0.1000E-07        689
                      109        60       109        61       0.1000E-07        690
                      110        44       110        43       0.1000E-07        691
                      110        60       111        60       0.1000E-07        692
                      110        60       110        61       0.1000E-07        693
                      111        44       111        43       0.1000E-07        694
                      111        59       111        60       0.1000E-07        695
                      112        44       112        43       0.1000E-07        696
                      112        59       112        60       0.1000E-07        697
                      113        44       113        43       0.1000E-07        698
                      113        59       114        59       0.1000E-07        699
                      113        59       113        60       0.1000E-07        700
                      114        44       114        43       0.1000E-07        701
                      114        58       114        59       0.1000E-07        702
                      115        44       115        43       0.1000E-07        703
                      115        58       115        59       0.1000E-07        704
                      116        44       116        43       0.1000E-07        705
                      116        58       116        59       0.1000E-07        706
                      117        44       117        43       0.1000E-07        707
                      117        58       117        59       0.1000E-07        708
                      118        44       118        43       0.1000E-07        709
                      118        58       118        59       0.1000E-07        710
                      119        43       118        43       0.1000E-07        711
                      119        43       119        42       0.1000E-07        712
                      119        58       119        59       0.1000E-07        713
                      120        43       120        42       0.1000E-07        714
                      120        58       120        59       0.1000E-07        715
                      121        43       121        42       0.1000E-07        716
                      121        58       121        59       0.1000E-07        717
                      122        42       123        42       0.1000E-07        718
                      122        42       122        43       0.1000E-07        719
                      122        58       122        59       0.1000E-07        720
                      123        42       123        41       0.1000E-07        721
                      123        58       123        59       0.1000E-07        722
                      124        42       124        41       0.1000E-07        723
                      124        58       124        59       0.1000E-07        724
                      125        41       124        41       0.1000E-07        725
                      125        41       125        40       0.1000E-07        726
                      125        58       125        59       0.1000E-07        727
                      126        41       126        40       0.1000E-07        728
                      126        58       126        57       0.1000E-07        729
                      126        58       125        58       0.1000E-07        730
                      127        40       126        40       0.1000E-07        731
                      127        40       127        39       0.1000E-07        732
                      127        58       127        57       0.1000E-07        733
                      128        40       128        39       0.1000E-07        734
                      128        58       128        57       0.1000E-07        735
                      129        40       129        39       0.1000E-07        736
                      129        58       129        57       0.1000E-07        737
                      130        39       130        40       0.1000E-07        738
                      130        58       130        57       0.1000E-07        739
                      131        39       132        39       0.1000E-07        740
                      131        39       131        40       0.1000E-07        741
                      131        58       131        57       0.1000E-07        742
                      132        39       132        38       0.1000E-07        743
                      132        58       132        57       0.1000E-07        744
                      133        39       133        38       0.1000E-07        745
                      133        58       133        57       0.1000E-07        746
                      134        38       133        38       0.1000E-07        747
                      134        38       134        37       0.1000E-07        748
                      134        58       134        57       0.1000E-07        749
                      135        38       135        37       0.1000E-07        750
                      135        58       135        57       0.1000E-07        751
                      136        38       136        37       0.1000E-07        752
                      136        57       136        58       0.1000E-07        753
                      137        38       137        37       0.1000E-07        754
                      137        57       137        58       0.1000E-07        755
                      138        38       138        37       0.1000E-07        756
                      138        57       139        57       0.1000E-07        757
                      138        57       138        58       0.1000E-07        758
                      139        38       139        37       0.1000E-07        759
                      139        57       139        56       0.1000E-07        760
                      140        38       140        37       0.1000E-07        761
                      140        57       140        56       0.1000E-07        762
                      141        38       141        37       0.1000E-07        763
                      141        57       141        56       0.1000E-07        764
                      142        38       142        37       0.1000E-07        765
                      142        56       142        57       0.1000E-07        766
                      143        37       142        37       0.1000E-07        767
                      143        37       143        36       0.1000E-07        768
                      143        56       144        56       0.1000E-07        769
                      143        56       143        57       0.1000E-07        770
                      144        37       144        36       0.1000E-07        771
                      144        56       144        55       0.1000E-07        772
                      145        37       145        36       0.1000E-07        773
                      145        55       145        56       0.1000E-07        774
                      146        36       145        36       0.1000E-07        775
                      146        36       146        35       0.1000E-07        776
                      146        55       146        56       0.1000E-07        777
                      147        36       147        35       0.1000E-07        778
                      148        36       148        35       0.1000E-07        779
                      149        36       149        35       0.1000E-07        780
                      150        35       149        35       0.1000E-07        781
                      150        35       150        34       0.1000E-07        782
                      151        35       151        34       0.1000E-07        783
                       70        37        71        37       0.1000E-07        784
                       70        37        70        36       0.1000E-07        785
                       69        37        69        36       0.1000E-07        786
                       68        37        68        36       0.1000E-07        787
                       67        36        68        36       0.1000E-07        788
                       67        36        67        35       0.1000E-07        789
                       66        36        66        35       0.1000E-07        790
                       65        36        65        35       0.1000E-07        791
                       64        35        65        35       0.1000E-07        792
                       64        35        64        34       0.1000E-07        793
                       63        35        63        34       0.1000E-07        794
                       62        35        62        34       0.1000E-07        795
                      203        33       204        33       0.1000E-03        796
                      204        34       204        33       0.1000E-03        797
                      205        34       204        34       0.1000E-03        798
                      205        35       206        35       0.1000E-03        799
                      205        35       205        34       0.1000E-03        800
                      206        36       207        36       0.1000E-03        801
                      206        36       206        35       0.1000E-03        802
                      207        36       207        37       0.1000E-03        803
                      208        37       209        37       0.1000E-03        804
                      208        37       208        36       0.1000E-03        805
                      209        37       209        38       0.1000E-03        806
                      210        37       210        38       0.1000E-03        807
                      211        37       211        38       0.1000E-03        808
                      212        37       213        37       0.1000E-03        809
                      212        37       212        38       0.1000E-03        810
                      213        37       213        36       0.1000E-03        811
                      214        37       214        36       0.1000E-03        812
                      215        36       215        37       0.1000E-03        813
                      216        36       217        36       0.1000E-03        814
                      216        36       216        37       0.1000E-03        815
                      217        36       217        35       0.1000E-03        816
                      218        36       218        35       0.1000E-03        817
                      219        35       219        36       0.1000E-03        818
                      220        35       219        35       0.1000E-03        819
                      220        35       220        34       0.1000E-03        820
                      221        34       220        34       0.1000E-03        821
0  155 HORIZONTAL FLOW BARRIERS IN LAYER    7
                     IROW1     ICOL1     IROW2     ICOL2  HYD. COND./WIDTH  BARRIER NO.
                     -----------------------------------------------------------------------
                       95        44        95        43       0.1000E-07        822
                       96        44        96        43       0.1000E-07        823
                       97        44        97        43       0.1000E-07        824
                       98        44        98        43       0.1000E-07        825
                       99        44        99        43       0.1000E-07        826
                      100        44       100        43       0.1000E-07        827
                      101        44       101        43       0.1000E-07        828
                      102        44       102        43       0.1000E-07        829
                      102        61       102        62       0.1000E-07        830
                      103        44       103        43       0.1000E-07        831
                      103        61       103        62       0.1000E-07        832
                      104        44       104        43       0.1000E-07        833
                      104        61       104        62       0.1000E-07        834
                      105        44       105        43       0.1000E-07        835
                      105        61       105        62       0.1000E-07        836
                      106        44       106        43       0.1000E-07        837
                      106        61       106        62       0.1000E-07        838
                      107        44       107        43       0.1000E-07        839
                      107        61       108        61       0.1000E-07        840
                      107        61       107        62       0.1000E-07        841
                      108        44       108        43       0.1000E-07        842
                      108        60       108        61       0.1000E-07        843
                      109        44       109        43       0.1000E-07        844
                      109        60       109        61       0.1000E-07        845
                      110        44       110        43       0.1000E-07        846
                      110        60       111        60       0.1000E-07        847
                      110        60       110        61       0.1000E-07        848
                      111        44       111        43       0.1000E-07        849
                      111        59       111        60       0.1000E-07        850
                      112        44       112        43       0.1000E-07        851
                      112        59       112        60       0.1000E-07        852
                      113        44       113        43       0.1000E-07        853
                      113        59       114        59       0.1000E-07        854
                      113        59       113        60       0.1000E-07        855
                      114        44       114        43       0.1000E-07        856
                      114        58       114        59       0.1000E-07        857
                      115        44       115        43       0.1000E-07        858
                      115        58       115        59       0.1000E-07        859
                      116        44       116        43       0.1000E-07        860
                      116        58       116        59       0.1000E-07        861
                      117        44       117        43       0.1000E-07        862
                      117        58       117        59       0.1000E-07        863
                      118        44       118        43       0.1000E-07        864
                      118        58       118        59       0.1000E-07        865
                      119        43       118        43       0.1000E-07        866
                      119        43       119        42       0.1000E-07        867
                      119        58       119        59       0.1000E-07        868
                      120        43       120        42       0.1000E-07        869
                      120        58       120        59       0.1000E-07        870
                      121        43       121        42       0.1000E-07        871
                      121        58       121        59       0.1000E-07        872
                      122        42       123        42       0.1000E-07        873
                      122        42       122        43       0.1000E-07        874
                      122        58       122        59       0.1000E-07        875
                      123        42       123        41       0.1000E-07        876
                      123        58       123        59       0.1000E-07        877
                      124        42       124        41       0.1000E-07        878
                      124        58       124        59       0.1000E-07        879
                      125        41       124        41       0.1000E-07        880
                      125        41       125        40       0.1000E-07        881
                      125        58       125        59       0.1000E-07        882
                      126        41       126        40       0.1000E-07        883
                      126        58       126        57       0.1000E-07        884
                      126        58       125        58       0.1000E-07        885
                      127        40       126        40       0.1000E-07        886
                      127        40       127        39       0.1000E-07        887
                      127        58       127        57       0.1000E-07        888
                      128        40       128        39       0.1000E-07        889
                      128        58       128        57       0.1000E-07        890
                      129        40       129        39       0.1000E-07        891
                      129        58       129        57       0.1000E-07        892
                      130        39       130        40       0.1000E-07        893
                      130        58       130        57       0.1000E-07        894
                      131        39       132        39       0.1000E-07        895
                      131        39       131        40       0.1000E-07        896
                      131        58       131        57       0.1000E-07        897
                      132        39       132        38       0.1000E-07        898
                      132        58       132        57       0.1000E-07        899
                      133        39       133        38       0.1000E-07        900
                      133        58       133        57       0.1000E-07        901
                      134        38       133        38       0.1000E-07        902
                      134        38       134        37       0.1000E-07        903
                      134        58       134        57       0.1000E-07        904
                      135        38       135        37       0.1000E-07        905
                      135        58       135        57       0.1000E-07        906
                      136        38       136        37       0.1000E-07        907
                      136        57       136        58       0.1000E-07        908
                      137        38       137        37       0.1000E-07        909
                      137        57       137        58       0.1000E-07        910
                      138        38       138        37       0.1000E-07        911
                      138        57       139        57       0.1000E-07        912
                      138        57       138        58       0.1000E-07        913
                      139        38       139        37       0.1000E-07        914
                      139        57       139        56       0.1000E-07        915
                      140        38       140        37       0.1000E-07        916
                      140        57       140        56       0.1000E-07        917
                      141        38       141        37       0.1000E-07        918
                      141        57       141        56       0.1000E-07        919
                      142        38       142        37       0.1000E-07        920
                      142        56       142        57       0.1000E-07        921
                      143        37       142        37       0.1000E-07        922
                      143        37       143        36       0.1000E-07        923
                      143        56       144        56       0.1000E-07        924
                      143        56       143        57       0.1000E-07        925
                      144        37       144        36       0.1000E-07        926
                      144        56       144        55       0.1000E-07        927
                      145        37       145        36       0.1000E-07        928
                      145        55       145        56       0.1000E-07        929
                      146        36       145        36       0.1000E-07        930
                      146        36       146        35       0.1000E-07        931
                      146        55       146        56       0.1000E-07        932
                      147        36       147        35       0.1000E-07        933
                      148        36       148        35       0.1000E-07        934
                      149        36       149        35       0.1000E-07        935
                      150        35       149        35       0.1000E-07        936
                      150        35       150        34       0.1000E-07        937
                      151        35       151        34       0.1000E-07        938
                       70        37        71        37       0.1000E-07        939
                       70        37        70        36       0.1000E-07        940
                       69        37        69        36       0.1000E-07        941
                       68        37        68        36       0.1000E-07        942
                       67        36        68        36       0.1000E-07        943
                       67        36        67        35       0.1000E-07        944
                       66        36        66        35       0.1000E-07        945
                       65        36        65        35       0.1000E-07        946
                       64        35        65        35       0.1000E-07        947
                       64        35        64        34       0.1000E-07        948
                       63        35        63        34       0.1000E-07        949
                       62        35        62        34       0.1000E-07        950
                      203        33       204        33       0.1000E-03        951
                      204        34       204        33       0.1000E-03        952
                      205        34       204        34       0.1000E-03        953
                      205        35       206        35       0.1000E-03        954
                      205        35       205        34       0.1000E-03        955
                      206        36       207        36       0.1000E-03        956
                      206        36       206        35       0.1000E-03        957
                      207        36       207        37       0.1000E-03        958
                      208        37       209        37       0.1000E-03        959
                      208        37       208        36       0.1000E-03        960
                      209        37       209        38       0.1000E-03        961
                      210        37       210        38       0.1000E-03        962
                      211        37       211        38       0.1000E-03        963
                      212        37       213        37       0.1000E-03        964
                      212        37       212        38       0.1000E-03        965
                      213        37       213        36       0.1000E-03        966
                      214        37       214        36       0.1000E-03        967
                      215        36       215        37       0.1000E-03        968
                      216        36       217        36       0.1000E-03        969
                      216        36       216        37       0.1000E-03        970
                      217        36       217        35       0.1000E-03        971
                      218        36       218        35       0.1000E-03        972
                      219        35       219        36       0.1000E-03        973
                      220        35       219        35       0.1000E-03        974
                      220        35       220        34       0.1000E-03        975
                      221        34       220        34       0.1000E-03        976
0  155 HORIZONTAL FLOW BARRIERS IN LAYER    8
                     IROW1     ICOL1     IROW2     ICOL2  HYD. COND./WIDTH  BARRIER NO.
                     -----------------------------------------------------------------------
                       95        44        95        43       0.1000E-07        977
                       96        44        96        43       0.1000E-07        978
                       97        44        97        43       0.1000E-07        979
                       98        44        98        43       0.1000E-07        980
                       99        44        99        43       0.1000E-07        981
                      100        44       100        43       0.1000E-07        982
                      101        44       101        43       0.1000E-07        983
                      102        44       102        43       0.1000E-07        984
                      102        61       102        62       0.1000E-07        985
                      103        44       103        43       0.1000E-07        986
                      103        61       103        62       0.1000E-07        987
                      104        44       104        43       0.1000E-07        988
                      104        61       104        62       0.1000E-07        989
                      105        44       105        43       0.1000E-07        990
                      105        61       105        62       0.1000E-07        991
                      106        44       106        43       0.1000E-07        992
                      106        61       106        62       0.1000E-07        993
                      107        44       107        43       0.1000E-07        994
                      107        61       108        61       0.1000E-07        995
                      107        61       107        62       0.1000E-07        996
                      108        44       108        43       0.1000E-07        997
                      108        60       108        61       0.1000E-07        998
                      109        44       109        43       0.1000E-07        999
                      109        60       109        61       0.1000E-07       1000
                      110        44       110        43       0.1000E-07       1001
                      110        60       111        60       0.1000E-07       1002
                      110        60       110        61       0.1000E-07       1003
                      111        44       111        43       0.1000E-07       1004
                      111        59       111        60       0.1000E-07       1005
                      112        44       112        43       0.1000E-07       1006
                      112        59       112        60       0.1000E-07       1007
                      113        44       113        43       0.1000E-07       1008
                      113        59       114        59       0.1000E-07       1009
                      113        59       113        60       0.1000E-07       1010
                      114        44       114        43       0.1000E-07       1011
                      114        58       114        59       0.1000E-07       1012
                      115        44       115        43       0.1000E-07       1013
                      115        58       115        59       0.1000E-07       1014
                      116        44       116        43       0.1000E-07       1015
                      116        58       116        59       0.1000E-07       1016
                      117        44       117        43       0.1000E-07       1017
                      117        58       117        59       0.1000E-07       1018
                      118        44       118        43       0.1000E-07       1019
                      118        58       118        59       0.1000E-07       1020
                      119        43       118        43       0.1000E-07       1021
                      119        43       119        42       0.1000E-07       1022
                      119        58       119        59       0.1000E-07       1023
                      120        43       120        42       0.1000E-07       1024
                      120        58       120        59       0.1000E-07       1025
                      121        43       121        42       0.1000E-07       1026
                      121        58       121        59       0.1000E-07       1027
                      122        42       123        42       0.1000E-07       1028
                      122        42       122        43       0.1000E-07       1029
                      122        58       122        59       0.1000E-07       1030
                      123        42       123        41       0.1000E-07       1031
                      123        58       123        59       0.1000E-07       1032
                      124        42       124        41       0.1000E-07       1033
                      124        58       124        59       0.1000E-07       1034
                      125        41       124        41       0.1000E-07       1035
                      125        41       125        40       0.1000E-07       1036
                      125        58       125        59       0.1000E-07       1037
                      126        41       126        40       0.1000E-07       1038
                      126        58       126        57       0.1000E-07       1039
                      126        58       125        58       0.1000E-07       1040
                      127        40       126        40       0.1000E-07       1041
                      127        40       127        39       0.1000E-07       1042
                      127        58       127        57       0.1000E-07       1043
                      128        40       128        39       0.1000E-07       1044
                      128        58       128        57       0.1000E-07       1045
                      129        40       129        39       0.1000E-07       1046
                      129        58       129        57       0.1000E-07       1047
                      130        39       130        40       0.1000E-07       1048
                      130        58       130        57       0.1000E-07       1049
                      131        39       132        39       0.1000E-07       1050
                      131        39       131        40       0.1000E-07       1051
                      131        58       131        57       0.1000E-07       1052
                      132        39       132        38       0.1000E-07       1053
                      132        58       132        57       0.1000E-07       1054
                      133        39       133        38       0.1000E-07       1055
                      133        58       133        57       0.1000E-07       1056
                      134        38       133        38       0.1000E-07       1057
                      134        38       134        37       0.1000E-07       1058
                      134        58       134        57       0.1000E-07       1059
                      135        38       135        37       0.1000E-07       1060
                      135        58       135        57       0.1000E-07       1061
                      136        38       136        37       0.1000E-07       1062
                      136        57       136        58       0.1000E-07       1063
                      137        38       137        37       0.1000E-07       1064
                      137        57       137        58       0.1000E-07       1065
                      138        38       138        37       0.1000E-07       1066
                      138        57       139        57       0.1000E-07       1067
                      138        57       138        58       0.1000E-07       1068
                      139        38       139        37       0.1000E-07       1069
                      139        57       139        56       0.1000E-07       1070
                      140        38       140        37       0.1000E-07       1071
                      140        57       140        56       0.1000E-07       1072
                      141        38       141        37       0.1000E-07       1073
                      141        57       141        56       0.1000E-07       1074
                      142        38       142        37       0.1000E-07       1075
                      142        56       142        57       0.1000E-07       1076
                      143        37       142        37       0.1000E-07       1077
                      143        37       143        36       0.1000E-07       1078
                      143        56       144        56       0.1000E-07       1079
                      143        56       143        57       0.1000E-07       1080
                      144        37       144        36       0.1000E-07       1081
                      144        56       144        55       0.1000E-07       1082
                      145        37       145        36       0.1000E-07       1083
                      145        55       145        56       0.1000E-07       1084
                      146        36       145        36       0.1000E-07       1085
                      146        36       146        35       0.1000E-07       1086
                      146        55       146        56       0.1000E-07       1087
                      147        36       147        35       0.1000E-07       1088
                      148        36       148        35       0.1000E-07       1089
                      149        36       149        35       0.1000E-07       1090
                      150        35       149        35       0.1000E-07       1091
                      150        35       150        34       0.1000E-07       1092
                      151        35       151        34       0.1000E-07       1093
                       70        37        71        37       0.1000E-07       1094
                       70        37        70        36       0.1000E-07       1095
                       69        37        69        36       0.1000E-07       1096
                       68        37        68        36       0.1000E-07       1097
                       67        36        68        36       0.1000E-07       1098
                       67        36        67        35       0.1000E-07       1099
                       66        36        66        35       0.1000E-07       1100
                       65        36        65        35       0.1000E-07       1101
                       64        35        65        35       0.1000E-07       1102
                       64        35        64        34       0.1000E-07       1103
                       63        35        63        34       0.1000E-07       1104
                       62        35        62        34       0.1000E-07       1105
                      203        33       204        33       0.1000E-03       1106
                      204        34       204        33       0.1000E-03       1107
                      205        34       204        34       0.1000E-03       1108
                      205        35       206        35       0.1000E-03       1109
                      205        35       205        34       0.1000E-03       1110
                      206        36       207        36       0.1000E-03       1111
                      206        36       206        35       0.1000E-03       1112
                      207        36       207        37       0.1000E-03       1113
                      208        37       209        37       0.1000E-03       1114
                      208        37       208        36       0.1000E-03       1115
                      209        37       209        38       0.1000E-03       1116
                      210        37       210        38       0.1000E-03       1117
                      211        37       211        38       0.1000E-03       1118
                      212        37       213        37       0.1000E-03       1119
                      212        37       212        38       0.1000E-03       1120
                      213        37       213        36       0.1000E-03       1121
                      214        37       214        36       0.1000E-03       1122
                      215        36       215        37       0.1000E-03       1123
                      216        36       217        36       0.1000E-03       1124
                      216        36       216        37       0.1000E-03       1125
                      217        36       217        35       0.1000E-03       1126
                      218        36       218        35       0.1000E-03       1127
                      219        35       219        36       0.1000E-03       1128
                      220        35       219        35       0.1000E-03       1129
                      220        35       220        34       0.1000E-03       1130
                      221        34       220        34       0.1000E-03       1131
0  155 HORIZONTAL FLOW BARRIERS IN LAYER    9
                     IROW1     ICOL1     IROW2     ICOL2  HYD. COND./WIDTH  BARRIER NO.
                     -----------------------------------------------------------------------
                       95        44        95        43       0.1000E-07       1132
                       96        44        96        43       0.1000E-07       1133
                       97        44        97        43       0.1000E-07       1134
                       98        44        98        43       0.1000E-07       1135
                       99        44        99        43       0.1000E-07       1136
                      100        44       100        43       0.1000E-07       1137
                      101        44       101        43       0.1000E-07       1138
                      102        44       102        43       0.1000E-07       1139
                      102        61       102        62       0.1000E-07       1140
                      103        44       103        43       0.1000E-07       1141
                      103        61       103        62       0.1000E-07       1142
                      104        44       104        43       0.1000E-07       1143
                      104        61       104        62       0.1000E-07       1144
                      105        44       105        43       0.1000E-07       1145
                      105        61       105        62       0.1000E-07       1146
                      106        44       106        43       0.1000E-07       1147
                      106        61       106        62       0.1000E-07       1148
                      107        44       107        43       0.1000E-07       1149
                      107        61       108        61       0.1000E-07       1150
                      107        61       107        62       0.1000E-07       1151
                      108        44       108        43       0.1000E-07       1152
                      108        60       108        61       0.1000E-07       1153
                      109        44       109        43       0.1000E-07       1154
                      109        60       109        61       0.1000E-07       1155
                      110        44       110        43       0.1000E-07       1156
                      110        60       111        60       0.1000E-07       1157
                      110        60       110        61       0.1000E-07       1158
                      111        44       111        43       0.1000E-07       1159
                      111        59       111        60       0.1000E-07       1160
                      112        44       112        43       0.1000E-07       1161
                      112        59       112        60       0.1000E-07       1162
                      113        44       113        43       0.1000E-07       1163
                      113        59       114        59       0.1000E-07       1164
                      113        59       113        60       0.1000E-07       1165
                      114        44       114        43       0.1000E-07       1166
                      114        58       114        59       0.1000E-07       1167
                      115        44       115        43       0.1000E-07       1168
                      115        58       115        59       0.1000E-07       1169
                      116        44       116        43       0.1000E-07       1170
                      116        58       116        59       0.1000E-07       1171
                      117        44       117        43       0.1000E-07       1172
                      117        58       117        59       0.1000E-07       1173
                      118        44       118        43       0.1000E-07       1174
                      118        58       118        59       0.1000E-07       1175
                      119        43       118        43       0.1000E-07       1176
                      119        43       119        42       0.1000E-07       1177
                      119        58       119        59       0.1000E-07       1178
                      120        43       120        42       0.1000E-07       1179
                      120        58       120        59       0.1000E-07       1180
                      121        43       121        42       0.1000E-07       1181
                      121        58       121        59       0.1000E-07       1182
                      122        42       123        42       0.1000E-07       1183
                      122        42       122        43       0.1000E-07       1184
                      122        58       122        59       0.1000E-07       1185
                      123        42       123        41       0.1000E-07       1186
                      123        58       123        59       0.1000E-07       1187
                      124        42       124        41       0.1000E-07       1188
                      124        58       124        59       0.1000E-07       1189
                      125        41       124        41       0.1000E-07       1190
                      125        41       125        40       0.1000E-07       1191
                      125        58       125        59       0.1000E-07       1192
                      126        41       126        40       0.1000E-07       1193
                      126        58       126        57       0.1000E-07       1194
                      126        58       125        58       0.1000E-07       1195
                      127        40       126        40       0.1000E-07       1196
                      127        40       127        39       0.1000E-07       1197
                      127        58       127        57       0.1000E-07       1198
                      128        40       128        39       0.1000E-07       1199
                      128        58       128        57       0.1000E-07       1200
                      129        40       129        39       0.1000E-07       1201
                      129        58       129        57       0.1000E-07       1202
                      130        39       130        40       0.1000E-07       1203
                      130        58       130        57       0.1000E-07       1204
                      131        39       132        39       0.1000E-07       1205
                      131        39       131        40       0.1000E-07       1206
                      131        58       131        57       0.1000E-07       1207
                      132        39       132        38       0.1000E-07       1208
                      132        58       132        57       0.1000E-07       1209
                      133        39       133        38       0.1000E-07       1210
                      133        58       133        57       0.1000E-07       1211
                      134        38       133        38       0.1000E-07       1212
                      134        38       134        37       0.1000E-07       1213
                      134        58       134        57       0.1000E-07       1214
                      135        38       135        37       0.1000E-07       1215
                      135        58       135        57       0.1000E-07       1216
                      136        38       136        37       0.1000E-07       1217
                      136        57       136        58       0.1000E-07       1218
                      137        38       137        37       0.1000E-07       1219
                      137        57       137        58       0.1000E-07       1220
                      138        38       138        37       0.1000E-07       1221
                      138        57       139        57       0.1000E-07       1222
                      138        57       138        58       0.1000E-07       1223
                      139        38       139        37       0.1000E-07       1224
                      139        57       139        56       0.1000E-07       1225
                      140        38       140        37       0.1000E-07       1226
                      140        57       140        56       0.1000E-07       1227
                      141        38       141        37       0.1000E-07       1228
                      141        57       141        56       0.1000E-07       1229
                      142        38       142        37       0.1000E-07       1230
                      142        56       142        57       0.1000E-07       1231
                      143        37       142        37       0.1000E-07       1232
                      143        37       143        36       0.1000E-07       1233
                      143        56       144        56       0.1000E-07       1234
                      143        56       143        57       0.1000E-07       1235
                      144        37       144        36       0.1000E-07       1236
                      144        56       144        55       0.1000E-07       1237
                      145        37       145        36       0.1000E-07       1238
                      145        55       145        56       0.1000E-07       1239
                      146        36       145        36       0.1000E-07       1240
                      146        36       146        35       0.1000E-07       1241
                      146        55       146        56       0.1000E-07       1242
                      147        36       147        35       0.1000E-07       1243
                      148        36       148        35       0.1000E-07       1244
                      149        36       149        35       0.1000E-07       1245
                      150        35       149        35       0.1000E-07       1246
                      150        35       150        34       0.1000E-07       1247
                      151        35       151        34       0.1000E-07       1248
                       70        37        71        37       0.1000E-07       1249
                       70        37        70        36       0.1000E-07       1250
                       69        37        69        36       0.1000E-07       1251
                       68        37        68        36       0.1000E-07       1252
                       67        36        68        36       0.1000E-07       1253
                       67        36        67        35       0.1000E-07       1254
                       66        36        66        35       0.1000E-07       1255
                       65        36        65        35       0.1000E-07       1256
                       64        35        65        35       0.1000E-07       1257
                       64        35        64        34       0.1000E-07       1258
                       63        35        63        34       0.1000E-07       1259
                       62        35        62        34       0.1000E-07       1260
                      203        33       204        33       0.1000E-03       1261
                      204        34       204        33       0.1000E-03       1262
                      205        34       204        34       0.1000E-03       1263
                      205        35       206        35       0.1000E-03       1264
                      205        35       205        34       0.1000E-03       1265
                      206        36       207        36       0.1000E-03       1266
                      206        36       206        35       0.1000E-03       1267
                      207        36       207        37       0.1000E-03       1268
                      208        37       209        37       0.1000E-03       1269
                      208        37       208        36       0.1000E-03       1270
                      209        37       209        38       0.1000E-03       1271
                      210        37       210        38       0.1000E-03       1272
                      211        37       211        38       0.1000E-03       1273
                      212        37       213        37       0.1000E-03       1274
                      212        37       212        38       0.1000E-03       1275
                      213        37       213        36       0.1000E-03       1276
                      214        37       214        36       0.1000E-03       1277
                      215        36       215        37       0.1000E-03       1278
                      216        36       217        36       0.1000E-03       1279
                      216        36       216        37       0.1000E-03       1280
                      217        36       217        35       0.1000E-03       1281
                      218        36       218        35       0.1000E-03       1282
                      219        35       219        36       0.1000E-03       1283
                      220        35       219        35       0.1000E-03       1284
                      220        35       220        34       0.1000E-03       1285
                      221        34       220        34       0.1000E-03       1286
0  155 HORIZONTAL FLOW BARRIERS IN LAYER   10
                     IROW1     ICOL1     IROW2     ICOL2  HYD. COND./WIDTH  BARRIER NO.
                     -----------------------------------------------------------------------
                       95        44        95        43       0.1000E-07       1287
                       96        44        96        43       0.1000E-07       1288
                       97        44        97        43       0.1000E-07       1289
                       98        44        98        43       0.1000E-07       1290
                       99        44        99        43       0.1000E-07       1291
                      100        44       100        43       0.1000E-07       1292
                      101        44       101        43       0.1000E-07       1293
                      102        44       102        43       0.1000E-07       1294
                      102        61       102        62       0.1000E-07       1295
                      103        44       103        43       0.1000E-07       1296
                      103        61       103        62       0.1000E-07       1297
                      104        44       104        43       0.1000E-07       1298
                      104        61       104        62       0.1000E-07       1299
                      105        44       105        43       0.1000E-07       1300
                      105        61       105        62       0.1000E-07       1301
                      106        44       106        43       0.1000E-07       1302
                      106        61       106        62       0.1000E-07       1303
                      107        44       107        43       0.1000E-07       1304
                      107        61       108        61       0.1000E-07       1305
                      107        61       107        62       0.1000E-07       1306
                      108        44       108        43       0.1000E-07       1307
                      108        60       108        61       0.1000E-07       1308
                      109        44       109        43       0.1000E-07       1309
                      109        60       109        61       0.1000E-07       1310
                      110        44       110        43       0.1000E-07       1311
                      110        60       111        60       0.1000E-07       1312
                      110        60       110        61       0.1000E-07       1313
                      111        44       111        43       0.1000E-07       1314
                      111        59       111        60       0.1000E-07       1315
                      112        44       112        43       0.1000E-07       1316
                      112        59       112        60       0.1000E-07       1317
                      113        44       113        43       0.1000E-07       1318
                      113        59       114        59       0.1000E-07       1319
                      113        59       113        60       0.1000E-07       1320
                      114        44       114        43       0.1000E-07       1321
                      114        58       114        59       0.1000E-07       1322
                      115        44       115        43       0.1000E-07       1323
                      115        58       115        59       0.1000E-07       1324
                      116        44       116        43       0.1000E-07       1325
                      116        58       116        59       0.1000E-07       1326
                      117        44       117        43       0.1000E-07       1327
                      117        58       117        59       0.1000E-07       1328
                      118        44       118        43       0.1000E-07       1329
                      118        58       118        59       0.1000E-07       1330
                      119        43       118        43       0.1000E-07       1331
                      119        43       119        42       0.1000E-07       1332
                      119        58       119        59       0.1000E-07       1333
                      120        43       120        42       0.1000E-07       1334
                      120        58       120        59       0.1000E-07       1335
                      121        43       121        42       0.1000E-07       1336
                      121        58       121        59       0.1000E-07       1337
                      122        42       123        42       0.1000E-07       1338
                      122        42       122        43       0.1000E-07       1339
                      122        58       122        59       0.1000E-07       1340
                      123        42       123        41       0.1000E-07       1341
                      123        58       123        59       0.1000E-07       1342
                      124        42       124        41       0.1000E-07       1343
                      124        58       124        59       0.1000E-07       1344
                      125        41       124        41       0.1000E-07       1345
                      125        41       125        40       0.1000E-07       1346
                      125        58       125        59       0.1000E-07       1347
                      126        41       126        40       0.1000E-07       1348
                      126        58       126        57       0.1000E-07       1349
                      126        58       125        58       0.1000E-07       1350
                      127        40       126        40       0.1000E-07       1351
                      127        40       127        39       0.1000E-07       1352
                      127        58       127        57       0.1000E-07       1353
                      128        40       128        39       0.1000E-07       1354
                      128        58       128        57       0.1000E-07       1355
                      129        40       129        39       0.1000E-07       1356
                      129        58       129        57       0.1000E-07       1357
                      130        39       130        40       0.1000E-07       1358
                      130        58       130        57       0.1000E-07       1359
                      131        39       132        39       0.1000E-07       1360
                      131        39       131        40       0.1000E-07       1361
                      131        58       131        57       0.1000E-07       1362
                      132        39       132        38       0.1000E-07       1363
                      132        58       132        57       0.1000E-07       1364
                      133        39       133        38       0.1000E-07       1365
                      133        58       133        57       0.1000E-07       1366
                      134        38       133        38       0.1000E-07       1367
                      134        38       134        37       0.1000E-07       1368
                      134        58       134        57       0.1000E-07       1369
                      135        38       135        37       0.1000E-07       1370
                      135        58       135        57       0.1000E-07       1371
                      136        38       136        37       0.1000E-07       1372
                      136        57       136        58       0.1000E-07       1373
                      137        38       137        37       0.1000E-07       1374
                      137        57       137        58       0.1000E-07       1375
                      138        38       138        37       0.1000E-07       1376
                      138        57       139        57       0.1000E-07       1377
                      138        57       138        58       0.1000E-07       1378
                      139        38       139        37       0.1000E-07       1379
                      139        57       139        56       0.1000E-07       1380
                      140        38       140        37       0.1000E-07       1381
                      140        57       140        56       0.1000E-07       1382
                      141        38       141        37       0.1000E-07       1383
                      141        57       141        56       0.1000E-07       1384
                      142        38       142        37       0.1000E-07       1385
                      142        56       142        57       0.1000E-07       1386
                      143        37       142        37       0.1000E-07       1387
                      143        37       143        36       0.1000E-07       1388
                      143        56       144        56       0.1000E-07       1389
                      143        56       143        57       0.1000E-07       1390
                      144        37       144        36       0.1000E-07       1391
                      144        56       144        55       0.1000E-07       1392
                      145        37       145        36       0.1000E-07       1393
                      145        55       145        56       0.1000E-07       1394
                      146        36       145        36       0.1000E-07       1395
                      146        36       146        35       0.1000E-07       1396
                      146        55       146        56       0.1000E-07       1397
                      147        36       147        35       0.1000E-07       1398
                      148        36       148        35       0.1000E-07       1399
                      149        36       149        35       0.1000E-07       1400
                      150        35       149        35       0.1000E-07       1401
                      150        35       150        34       0.1000E-07       1402
                      151        35       151        34       0.1000E-07       1403
                       70        37        71        37       0.1000E-07       1404
                       70        37        70        36       0.1000E-07       1405
                       69        37        69        36       0.1000E-07       1406
                       68        37        68        36       0.1000E-07       1407
                       67        36        68        36       0.1000E-07       1408
                       67        36        67        35       0.1000E-07       1409
                       66        36        66        35       0.1000E-07       1410
                       65        36        65        35       0.1000E-07       1411
                       64        35        65        35       0.1000E-07       1412
                       64        35        64        34       0.1000E-07       1413
                       63        35        63        34       0.1000E-07       1414
                       62        35        62        34       0.1000E-07       1415
                      203        33       204        33       0.1000E-03       1416
                      204        34       204        33       0.1000E-03       1417
                      205        34       204        34       0.1000E-03       1418
                      205        35       206        35       0.1000E-03       1419
                      205        35       205        34       0.1000E-03       1420
                      206        36       207        36       0.1000E-03       1421
                      206        36       206        35       0.1000E-03       1422
                      207        36       207        37       0.1000E-03       1423
                      208        37       209        37       0.1000E-03       1424
                      208        37       208        36       0.1000E-03       1425
                      209        37       209        38       0.1000E-03       1426
                      210        37       210        38       0.1000E-03       1427
                      211        37       211        38       0.1000E-03       1428
                      212        37       213        37       0.1000E-03       1429
                      212        37       212        38       0.1000E-03       1430
                      213        37       213        36       0.1000E-03       1431
                      214        37       214        36       0.1000E-03       1432
                      215        36       215        37       0.1000E-03       1433
                      216        36       217        36       0.1000E-03       1434
                      216        36       216        37       0.1000E-03       1435
                      217        36       217        35       0.1000E-03       1436
                      218        36       218        35       0.1000E-03       1437
                      219        35       219        36       0.1000E-03       1438
                      220        35       219        35       0.1000E-03       1439
                      220        35       220        34       0.1000E-03       1440
                      221        34       220        34       0.1000E-03       1441
0  155 HORIZONTAL FLOW BARRIERS IN LAYER   11
                     IROW1     ICOL1     IROW2     ICOL2  HYD. COND./WIDTH  BARRIER NO.
                     -----------------------------------------------------------------------
                       95        44        95        43       0.1000E-07       1442
                       96        44        96        43       0.1000E-07       1443
                       97        44        97        43       0.1000E-07       1444
                       98        44        98        43       0.1000E-07       1445
                       99        44        99        43       0.1000E-07       1446
                      100        44       100        43       0.1000E-07       1447
                      101        44       101        43       0.1000E-07       1448
                      102        44       102        43       0.1000E-07       1449
                      102        61       102        62       0.1000E-07       1450
                      103        44       103        43       0.1000E-07       1451
                      103        61       103        62       0.1000E-07       1452
                      104        44       104        43       0.1000E-07       1453
                      104        61       104        62       0.1000E-07       1454
                      105        44       105        43       0.1000E-07       1455
                      105        61       105        62       0.1000E-07       1456
                      106        44       106        43       0.1000E-07       1457
                      106        61       106        62       0.1000E-07       1458
                      107        44       107        43       0.1000E-07       1459
                      107        61       108        61       0.1000E-07       1460
                      107        61       107        62       0.1000E-07       1461
                      108        44       108        43       0.1000E-07       1462
                      108        60       108        61       0.1000E-07       1463
                      109        44       109        43       0.1000E-07       1464
                      109        60       109        61       0.1000E-07       1465
                      110        44       110        43       0.1000E-07       1466
                      110        60       111        60       0.1000E-07       1467
                      110        60       110        61       0.1000E-07       1468
                      111        44       111        43       0.1000E-07       1469
                      111        59       111        60       0.1000E-07       1470
                      112        44       112        43       0.1000E-07       1471
                      112        59       112        60       0.1000E-07       1472
                      113        44       113        43       0.1000E-07       1473
                      113        59       114        59       0.1000E-07       1474
                      113        59       113        60       0.1000E-07       1475
                      114        44       114        43       0.1000E-07       1476
                      114        58       114        59       0.1000E-07       1477
                      115        44       115        43       0.1000E-07       1478
                      115        58       115        59       0.1000E-07       1479
                      116        44       116        43       0.1000E-07       1480
                      116        58       116        59       0.1000E-07       1481
                      117        44       117        43       0.1000E-07       1482
                      117        58       117        59       0.1000E-07       1483
                      118        44       118        43       0.1000E-07       1484
                      118        58       118        59       0.1000E-07       1485
                      119        43       118        43       0.1000E-07       1486
                      119        43       119        42       0.1000E-07       1487
                      119        58       119        59       0.1000E-07       1488
                      120        43       120        42       0.1000E-07       1489
                      120        58       120        59       0.1000E-07       1490
                      121        43       121        42       0.1000E-07       1491
                      121        58       121        59       0.1000E-07       1492
                      122        42       123        42       0.1000E-07       1493
                      122        42       122        43       0.1000E-07       1494
                      122        58       122        59       0.1000E-07       1495
                      123        42       123        41       0.1000E-07       1496
                      123        58       123        59       0.1000E-07       1497
                      124        42       124        41       0.1000E-07       1498
                      124        58       124        59       0.1000E-07       1499
                      125        41       124        41       0.1000E-07       1500
                      125        41       125        40       0.1000E-07       1501
                      125        58       125        59       0.1000E-07       1502
                      126        41       126        40       0.1000E-07       1503
                      126        58       126        57       0.1000E-07       1504
                      126        58       125        58       0.1000E-07       1505
                      127        40       126        40       0.1000E-07       1506
                      127        40       127        39       0.1000E-07       1507
                      127        58       127        57       0.1000E-07       1508
                      128        40       128        39       0.1000E-07       1509
                      128        58       128        57       0.1000E-07       1510
                      129        40       129        39       0.1000E-07       1511
                      129        58       129        57       0.1000E-07       1512
                      130        39       130        40       0.1000E-07       1513
                      130        58       130        57       0.1000E-07       1514
                      131        39       132        39       0.1000E-07       1515
                      131        39       131        40       0.1000E-07       1516
                      131        58       131        57       0.1000E-07       1517
                      132        39       132        38       0.1000E-07       1518
                      132        58       132        57       0.1000E-07       1519
                      133        39       133        38       0.1000E-07       1520
                      133        58       133        57       0.1000E-07       1521
                      134        38       133        38       0.1000E-07       1522
                      134        38       134        37       0.1000E-07       1523
                      134        58       134        57       0.1000E-07       1524
                      135        38       135        37       0.1000E-07       1525
                      135        58       135        57       0.1000E-07       1526
                      136        38       136        37       0.1000E-07       1527
                      136        57       136        58       0.1000E-07       1528
                      137        38       137        37       0.1000E-07       1529
                      137        57       137        58       0.1000E-07       1530
                      138        38       138        37       0.1000E-07       1531
                      138        57       139        57       0.1000E-07       1532
                      138        57       138        58       0.1000E-07       1533
                      139        38       139        37       0.1000E-07       1534
                      139        57       139        56       0.1000E-07       1535
                      140        38       140        37       0.1000E-07       1536
                      140        57       140        56       0.1000E-07       1537
                      141        38       141        37       0.1000E-07       1538
                      141        57       141        56       0.1000E-07       1539
                      142        38       142        37       0.1000E-07       1540
                      142        56       142        57       0.1000E-07       1541
                      143        37       142        37       0.1000E-07       1542
                      143        37       143        36       0.1000E-07       1543
                      143        56       144        56       0.1000E-07       1544
                      143        56       143        57       0.1000E-07       1545
                      144        37       144        36       0.1000E-07       1546
                      144        56       144        55       0.1000E-07       1547
                      145        37       145        36       0.1000E-07       1548
                      145        55       145        56       0.1000E-07       1549
                      146        36       145        36       0.1000E-07       1550
                      146        36       146        35       0.1000E-07       1551
                      146        55       146        56       0.1000E-07       1552
                      147        36       147        35       0.1000E-07       1553
                      148        36       148        35       0.1000E-07       1554
                      149        36       149        35       0.1000E-07       1555
                      150        35       149        35       0.1000E-07       1556
                      150        35       150        34       0.1000E-07       1557
                      151        35       151        34       0.1000E-07       1558
                       70        37        71        37       0.1000E-07       1559
                       70        37        70        36       0.1000E-07       1560
                       69        37        69        36       0.1000E-07       1561
                       68        37        68        36       0.1000E-07       1562
                       67        36        68        36       0.1000E-07       1563
                       67        36        67        35       0.1000E-07       1564
                       66        36        66        35       0.1000E-07       1565
                       65        36        65        35       0.1000E-07       1566
                       64        35        65        35       0.1000E-07       1567
                       64        35        64        34       0.1000E-07       1568
                       63        35        63        34       0.1000E-07       1569
                       62        35        62        34       0.1000E-07       1570
                      203        33       204        33       0.1000E-03       1571
                      204        34       204        33       0.1000E-03       1572
                      205        34       204        34       0.1000E-03       1573
                      205        35       206        35       0.1000E-03       1574
                      205        35       205        34       0.1000E-03       1575
                      206        36       207        36       0.1000E-03       1576
                      206        36       206        35       0.1000E-03       1577
                      207        36       207        37       0.1000E-03       1578
                      208        37       209        37       0.1000E-03       1579
                      208        37       208        36       0.1000E-03       1580
                      209        37       209        38       0.1000E-03       1581
                      210        37       210        38       0.1000E-03       1582
                      211        37       211        38       0.1000E-03       1583
                      212        37       213        37       0.1000E-03       1584
                      212        37       212        38       0.1000E-03       1585
                      213        37       213        36       0.1000E-03       1586
                      214        37       214        36       0.1000E-03       1587
                      215        36       215        37       0.1000E-03       1588
                      216        36       217        36       0.1000E-03       1589
                      216        36       216        37       0.1000E-03       1590
                      217        36       217        35       0.1000E-03       1591
                      218        36       218        35       0.1000E-03       1592
                      219        35       219        36       0.1000E-03       1593
                      220        35       219        35       0.1000E-03       1594
                      220        35       220        34       0.1000E-03       1595
                      221        34       220        34       0.1000E-03       1596
0  155 HORIZONTAL FLOW BARRIERS IN LAYER   12
                     IROW1     ICOL1     IROW2     ICOL2  HYD. COND./WIDTH  BARRIER NO.
                     -----------------------------------------------------------------------
                       95        44        95        43       0.1000E-07       1597
                       96        44        96        43       0.1000E-07       1598
                       97        44        97        43       0.1000E-07       1599
                       98        44        98        43       0.1000E-07       1600
                       99        44        99        43       0.1000E-07       1601
                      100        44       100        43       0.1000E-07       1602
                      101        44       101        43       0.1000E-07       1603
                      102        44       102        43       0.1000E-07       1604
                      102        61       102        62       0.1000E-07       1605
                      103        44       103        43       0.1000E-07       1606
                      103        61       103        62       0.1000E-07       1607
                      104        44       104        43       0.1000E-07       1608
                      104        61       104        62       0.1000E-07       1609
                      105        44       105        43       0.1000E-07       1610
                      105        61       105        62       0.1000E-07       1611
                      106        44       106        43       0.1000E-07       1612
                      106        61       106        62       0.1000E-07       1613
                      107        44       107        43       0.1000E-07       1614
                      107        61       108        61       0.1000E-07       1615
                      107        61       107        62       0.1000E-07       1616
                      108        44       108        43       0.1000E-07       1617
                      108        60       108        61       0.1000E-07       1618
                      109        44       109        43       0.1000E-07       1619
                      109        60       109        61       0.1000E-07       1620
                      110        44       110        43       0.1000E-07       1621
                      110        60       111        60       0.1000E-07       1622
                      110        60       110        61       0.1000E-07       1623
                      111        44       111        43       0.1000E-07       1624
                      111        59       111        60       0.1000E-07       1625
                      112        44       112        43       0.1000E-07       1626
                      112        59       112        60       0.1000E-07       1627
                      113        44       113        43       0.1000E-07       1628
                      113        59       114        59       0.1000E-07       1629
                      113        59       113        60       0.1000E-07       1630
                      114        44       114        43       0.1000E-07       1631
                      114        58       114        59       0.1000E-07       1632
                      115        44       115        43       0.1000E-07       1633
                      115        58       115        59       0.1000E-07       1634
                      116        44       116        43       0.1000E-07       1635
                      116        58       116        59       0.1000E-07       1636
                      117        44       117        43       0.1000E-07       1637
                      117        58       117        59       0.1000E-07       1638
                      118        44       118        43       0.1000E-07       1639
                      118        58       118        59       0.1000E-07       1640
                      119        43       118        43       0.1000E-07       1641
                      119        43       119        42       0.1000E-07       1642
                      119        58       119        59       0.1000E-07       1643
                      120        43       120        42       0.1000E-07       1644
                      120        58       120        59       0.1000E-07       1645
                      121        43       121        42       0.1000E-07       1646
                      121        58       121        59       0.1000E-07       1647
                      122        42       123        42       0.1000E-07       1648
                      122        42       122        43       0.1000E-07       1649
                      122        58       122        59       0.1000E-07       1650
                      123        42       123        41       0.1000E-07       1651
                      123        58       123        59       0.1000E-07       1652
                      124        42       124        41       0.1000E-07       1653
                      124        58       124        59       0.1000E-07       1654
                      125        41       124        41       0.1000E-07       1655
                      125        41       125        40       0.1000E-07       1656
                      125        58       125        59       0.1000E-07       1657
                      126        41       126        40       0.1000E-07       1658
                      126        58       126        57       0.1000E-07       1659
                      126        58       125        58       0.1000E-07       1660
                      127        40       126        40       0.1000E-07       1661
                      127        40       127        39       0.1000E-07       1662
                      127        58       127        57       0.1000E-07       1663
                      128        40       128        39       0.1000E-07       1664
                      128        58       128        57       0.1000E-07       1665
                      129        40       129        39       0.1000E-07       1666
                      129        58       129        57       0.1000E-07       1667
                      130        39       130        40       0.1000E-07       1668
                      130        58       130        57       0.1000E-07       1669
                      131        39       132        39       0.1000E-07       1670
                      131        39       131        40       0.1000E-07       1671
                      131        58       131        57       0.1000E-07       1672
                      132        39       132        38       0.1000E-07       1673
                      132        58       132        57       0.1000E-07       1674
                      133        39       133        38       0.1000E-07       1675
                      133        58       133        57       0.1000E-07       1676
                      134        38       133        38       0.1000E-07       1677
                      134        38       134        37       0.1000E-07       1678
                      134        58       134        57       0.1000E-07       1679
                      135        38       135        37       0.1000E-07       1680
                      135        58       135        57       0.1000E-07       1681
                      136        38       136        37       0.1000E-07       1682
                      136        57       136        58       0.1000E-07       1683
                      137        38       137        37       0.1000E-07       1684
                      137        57       137        58       0.1000E-07       1685
                      138        38       138        37       0.1000E-07       1686
                      138        57       139        57       0.1000E-07       1687
                      138        57       138        58       0.1000E-07       1688
                      139        38       139        37       0.1000E-07       1689
                      139        57       139        56       0.1000E-07       1690
                      140        38       140        37       0.1000E-07       1691
                      140        57       140        56       0.1000E-07       1692
                      141        38       141        37       0.1000E-07       1693
                      141        57       141        56       0.1000E-07       1694
                      142        38       142        37       0.1000E-07       1695
                      142        56       142        57       0.1000E-07       1696
                      143        37       142        37       0.1000E-07       1697
                      143        37       143        36       0.1000E-07       1698
                      143        56       144        56       0.1000E-07       1699
                      143        56       143        57       0.1000E-07       1700
                      144        37       144        36       0.1000E-07       1701
                      144        56       144        55       0.1000E-07       1702
                      145        37       145        36       0.1000E-07       1703
                      145        55       145        56       0.1000E-07       1704
                      146        36       145        36       0.1000E-07       1705
                      146        36       146        35       0.1000E-07       1706
                      146        55       146        56       0.1000E-07       1707
                      147        36       147        35       0.1000E-07       1708
                      148        36       148        35       0.1000E-07       1709
                      149        36       149        35       0.1000E-07       1710
                      150        35       149        35       0.1000E-07       1711
                      150        35       150        34       0.1000E-07       1712
                      151        35       151        34       0.1000E-07       1713
                       70        37        71        37       0.1000E-07       1714
                       70        37        70        36       0.1000E-07       1715
                       69        37        69        36       0.1000E-07       1716
                       68        37        68        36       0.1000E-07       1717
                       67        36        68        36       0.1000E-07       1718
                       67        36        67        35       0.1000E-07       1719
                       66        36        66        35       0.1000E-07       1720
                       65        36        65        35       0.1000E-07       1721
                       64        35        65        35       0.1000E-07       1722
                       64        35        64        34       0.1000E-07       1723
                       63        35        63        34       0.1000E-07       1724
                       62        35        62        34       0.1000E-07       1725
                      203        33       204        33       0.1000E-03       1726
                      204        34       204        33       0.1000E-03       1727
                      205        34       204        34       0.1000E-03       1728
                      205        35       206        35       0.1000E-03       1729
                      205        35       205        34       0.1000E-03       1730
                      206        36       207        36       0.1000E-03       1731
                      206        36       206        35       0.1000E-03       1732
                      207        36       207        37       0.1000E-03       1733
                      208        37       209        37       0.1000E-03       1734
                      208        37       208        36       0.1000E-03       1735
                      209        37       209        38       0.1000E-03       1736
                      210        37       210        38       0.1000E-03       1737
                      211        37       211        38       0.1000E-03       1738
                      212        37       213        37       0.1000E-03       1739
                      212        37       212        38       0.1000E-03       1740
                      213        37       213        36       0.1000E-03       1741
                      214        37       214        36       0.1000E-03       1742
                      215        36       215        37       0.1000E-03       1743
                      216        36       217        36       0.1000E-03       1744
                      216        36       216        37       0.1000E-03       1745
                      217        36       217        35       0.1000E-03       1746
                      218        36       218        35       0.1000E-03       1747
                      219        35       219        36       0.1000E-03       1748
                      220        35       219        35       0.1000E-03       1749
                      220        35       220        34       0.1000E-03       1750
                      221        34       220        34       0.1000E-03       1751

 BAS5 -- BASIC MODEL PACKAGE, VERSION 5, 1/1/95 INPUT READ FROM UNIT  1

 1                                                   STRESS PERIOD NO.       1, LENGTH =   73070.00    
                                                    ----------------------------------------------

0ATO4 -- OUTPUT CONTROL PACKAGE WITH AUTO TIME STEP INPUT READ FROM UNIT 18
0HEAD/DRAWDOWN PRINTOUT FLAG = 1     TOTAL BUDGET PRINTOUT FLAG = 1
 CELL-BY-CELL FLOW TERM FLAG = 1

     INITIAL TIME STEP SIZE.........(DELT) =   10.00000    
     MINIMUM TIME STEP SIZE.........(TMIN) =  0.1000000E-07
     MAXIMUM TIME STEP SIZE.........(TMAX) =   320.0000    
     MULTIPLIER FOR DELT..........(TSMULT) =     1.100
     DIVIDER FOR DELT..............(TSDIV) =     2.000
     NUMBER OF PRINT TIMES.........(NPRTS) =         9
     PRINTING FREQUENCY............(NPSTP) =         0

0PRINT TIMES OF STRESS PERIOD:
 ------------------------------
   100.0       1000.       5000.      0.1000E+05  0.2000E+05  0.3000E+05  0.4000E+05  0.5000E+05
  0.6000E+05
0
0OUTPUT FLAGS FOR ALL LAYERS ARE THE SAME:
   HEAD    DRAWDOWN  HEAD  DRAWDOWN
 PRINTOUT  PRINTOUT  SAVE    SAVE
 ----------------------------------
     0         0       1       1
0

 WEL1 -- WELL PACKAGE, VERSION 5, 9/1/93 INPUT READ FROM 16

                296 WELLS

 LAYER   ROW   COL   STRESS RATE   WELL NO.
 ------------------------------------------
    12    102    24    -67.000          1
    12    104    28    -27.000          2
    10    215    57    0.73700          3
    10    215    58    0.73700          4
    10    215    59    0.73700          5
    10    215    60    0.73700          6
    10    216    58     3.7750          7
    10    216    59     3.7750          8
    10    216    60     3.7750          9
    10    216    61     3.7750         10
    10    217    58    0.73700         11
    10    217    59     3.7750         12
    10    217    60     3.7750         13
    10    217    61     3.7750         14
    10    217    62     3.7750         15
    10    217    63     3.7750         16
    10    217    64    0.73700         17
    10    218    58    0.73700         18
    10    218    59     3.7750         19
    10    218    60     3.7750         20
    10    218    61     3.7750         21
    10    218    62     3.7750         22
    10    218    63     3.7750         23
    10    218    64     3.7750         24
    10    218    65    0.73700         25
    10    219    58    0.73700         26
    10    219    59     3.7750         27
    10    219    60     3.7750         28
    10    219    61     3.7750         29
    10    219    62     3.7750         30
    10    219    63     3.7750         31
    10    219    64     3.7750         32
    10    219    65    0.73700         33
    10    219    66    0.73700         34
    10    220    59     3.7750         35
    10    220    60     3.7750         36
    10    220    61     3.7750         37
    10    220    62     3.7750         38
    10    220    63     3.7750         39
    10    220    64     3.7750         40
    10    220    65     3.7750         41
    10    220    66    0.73700         42
    10    221    59    0.73700         43
    10    221    60     3.7750         44
    10    221    61     3.7750         45
    10    221    62     3.7750         46
    10    221    63     3.7750         47
    10    221    64     3.7750         48
    10    221    65     3.7750         49
    10    221    66    0.73700         50
    10    221    67    0.73700         51
    10    222    59    0.73700         52
    10    222    60     3.7750         53
    10    222    61     3.7750         54
    10    222    62     3.7750         55
    10    222    63     3.7750         56
    10    222    64     3.7750         57
    10    222    65     3.7750         58
    10    222    66    0.73700         59
    10    222    67    0.73700         60
    10    222    68    0.73700         61
    10    223    59    0.73700         62
    10    223    60     3.7750         63
    10    223    61     3.7750         64
    10    223    62     3.7750         65
    10    223    63     3.7750         66
    10    223    64     3.7750         67
    10    223    65     3.7750         68
    10    223    66    0.73700         69
    10    223    67    0.73700         70
    10    223    68    0.73700         71
    10    224    60     3.7750         72
    10    224    61     3.7750         73
    10    224    62     3.7750         74
    10    224    63     3.7750         75
    10    224    64     3.7750         76
    10    224    65     3.7750         77
    10    224    66     3.7750         78
    10    224    67    0.73700         79
    10    224    68    0.73700         80
    10    225    60    0.73700         81
    10    225    61     3.7750         82
    10    225    62     3.7750         83
    10    225    63     3.7750         84
    10    225    64     3.7750         85
    10    225    65     3.7750         86
    10    225    66     3.7750         87
    10    225    67    0.73700         88
    10    225    68    0.73700         89
    10    226    60    0.73700         90
    10    226    61     3.7750         91
    10    226    62     3.7750         92
    10    226    63     3.7750         93
    10    226    64     3.7750         94
    10    226    65     3.7750         95
    10    226    66     3.7750         96
    10    226    67    0.73700         97
    10    226    68    0.73700         98
    10    227    60    0.73700         99
    10    227    61     3.7750        100
    10    227    62     3.7750        101
    10    227    63     3.7750        102
    10    227    64     3.7750        103
    10    227    65     3.7750        104
    10    227    66     3.7750        105
    10    227    67    0.73700        106
    10    227    68    0.73700        107
    10    228    61    0.73700        108
    10    228    62     3.7750        109
    10    228    63     3.7750        110
    10    228    64     3.7750        111
    10    228    65     3.7750        112
    10    228    66     3.7750        113
    10    228    67    0.73700        114
    10    228    68    0.73700        115
    10    229    62    0.73700        116
    10    229    63    0.73700        117
    10    229    64     3.7750        118
    10    229    65    0.73700        119
    10    229    66    0.73700        120
    10    229    67    0.73700        121
    10    229    68    0.73700        122
    10    230    63    0.73700        123
    10    230    64    0.73700        124
    10    230    65    0.73700        125
    10    230    66    0.73700        126
    10    230    67    0.73700        127
    10    230    68    0.73700        128
    10    231    64    0.73700        129
    10    231    65    0.73700        130
    10    231    66    0.73700        131
    10    231    67    0.73700        132
    10    231    68    0.73700        133
    10    232    64    0.73700        134
    10    232    65    0.73700        135
    10    232    66    0.73700        136
    10    232    67    0.73700        137
    10    232    68    0.73700        138
    10    233    65    0.73700        139
    10    233    66    0.73700        140
    10    233    67    0.73700        141
    10    233    68    0.73700        142
    10    234    66    0.73700        143
    10    234    67    0.73700        144
    10    235    67    0.73700        145
    10    227    72     0.0000        146
    10    227    73     0.0000        147
    10    227    74     0.0000        148
    10    227    75     0.0000        149
    10    228    72     0.0000        150
    10    228    73     0.0000        151
    10    228    74     0.0000        152
    10    228    75     0.0000        153
    10    229    71     0.0000        154
    10    229    72     0.0000        155
    10    229    73     0.0000        156
    10    229    74     0.0000        157
    10    229    75     0.0000        158
    10    230    71     0.0000        159
    10    230    72     0.0000        160
    10    230    73     0.0000        161
    10    230    74     0.0000        162
    10    230    75     0.0000        163
    10    230    76     0.0000        164
    10    231    71     0.0000        165
    10    231    72     0.0000        166
    10    231    73     0.0000        167
    10    231    74     0.0000        168
    10    231    75     0.0000        169
    10    231    76     0.0000        170
    10    232    71     0.0000        171
    10    232    72     0.0000        172
    10    232    73     0.0000        173
    10    232    74     0.0000        174
    10    232    75     0.0000        175
    10    232    76     0.0000        176
    10    232    77     0.0000        177
    10    233    70     0.0000        178
    10    233    71     0.0000        179
    10    233    72     0.0000        180
    10    233    73     0.0000        181
    10    233    74     0.0000        182
    10    233    75     0.0000        183
    10    233    76     0.0000        184
    10    233    77     0.0000        185
    10    233    78     0.0000        186
    10    234    70     0.0000        187
    10    234    71     0.0000        188
    10    234    72     0.0000        189
    10    234    73     0.0000        190
    10    234    74     0.0000        191
    10    234    75     0.0000        192
    10    234    76     0.0000        193
    10    234    77     0.0000        194
    10    234    78     0.0000        195
    10    234    79     0.0000        196
    10    234    80     0.0000        197
    10    235    70     0.0000        198
    10    235    71     0.0000        199
    10    235    72     0.0000        200
    10    235    73     0.0000        201
    10    235    74     0.0000        202
    10    235    75     0.0000        203
    10    235    76     0.0000        204
    10    235    77     0.0000        205
    10    235    78     0.0000        206
    10    235    79     0.0000        207
    10    235    80     0.0000        208
    10    235    81     0.0000        209
    10    236    70     0.0000        210
    10    236    71     0.0000        211
    10    236    72     0.0000        212
    10    236    73     0.0000        213
    10    236    74     0.0000        214
    10    236    75     0.0000        215
    10    236    76     0.0000        216
    10    236    77     0.0000        217
    10    236    78     0.0000        218
    10    236    79     0.0000        219
    10    236    80     0.0000        220
    10    236    81     0.0000        221
    10    236    82     0.0000        222
    10    236    83     0.0000        223
    10    236    84     0.0000        224
    10    237    69     0.0000        225
    10    237    70     0.0000        226
    10    237    71     0.0000        227
    10    237    72     0.0000        228
    10    237    73     0.0000        229
    10    237    74     0.0000        230
    10    237    75     0.0000        231
    10    237    76     0.0000        232
    10    237    77     0.0000        233
    10    237    78     0.0000        234
    10    237    79     0.0000        235
    10    237    80     0.0000        236
    10    237    81     0.0000        237
    10    237    82     0.0000        238
    10    237    83     0.0000        239
    10    238    69     0.0000        240
    10    238    70     0.0000        241
    10    238    71     0.0000        242
    10    238    72     0.0000        243
    10    238    73     0.0000        244
    10    238    74     0.0000        245
    10    238    75     0.0000        246
    10    238    76     0.0000        247
    10    238    77     0.0000        248
    10    238    78     0.0000        249
    10    238    79     0.0000        250
    10    238    80     0.0000        251
    10    238    81     0.0000        252
    10    238    82     0.0000        253
    10    239    69     0.0000        254
    10    239    70     0.0000        255
    10    239    71     0.0000        256
    10    239    72     0.0000        257
    10    239    73     0.0000        258
    10    239    74     0.0000        259
    10    239    75     0.0000        260
    10    239    76     0.0000        261
    10    239    77     0.0000        262
    10    239    78     0.0000        263
    10    239    79     0.0000        264
    10    239    80     0.0000        265
    10    239    81     0.0000        266
    10    240    70     0.0000        267
    10    240    71     0.0000        268
    10    240    72     0.0000        269
    10    240    73     0.0000        270
    10    240    74     0.0000        271
    10    240    75     0.0000        272
    10    240    76     0.0000        273
    10    240    77     0.0000        274
    10    240    78     0.0000        275
    10    240    79     0.0000        276
    10    240    80     0.0000        277
    10    240    81     0.0000        278
    10    241    71     0.0000        279
    10    241    72     0.0000        280
    10    241    73     0.0000        281
    10    241    74     0.0000        282
    10    241    75     0.0000        283
    10    241    76     0.0000        284
    10    241    77     0.0000        285
    10    241    78     0.0000        286
    10    241    79     0.0000        287
    10    241    80     0.0000        288
    10    241    81     0.0000        289
    10    242    73     0.0000        290
    10    242    74     0.0000        291
    10    242    75     0.0000        292
    10    242    76     0.0000        293
    10    242    77     0.0000        294
    10    243    74     0.0000        295
    10    243    75     0.0000        296

 WL5 -- MULTI-NODE FRACTURE-WELL PACKAGE, VERSION 1, 04/22/05  INPUT READ FROM 21
 ***WARNING: WELL BOTTOM ELEVATION HAS BEEN SET TO WELL BOTTOM LAYER ELEVATION***
     LAYER =    10     ROW =   228     COLUMN =    77     WELL BOTTOM ELEVATION =  6566.    
 ***WARNING: WELL BOTTOM ELEVATION HAS BEEN SET TO WELL BOTTOM LAYER ELEVATION***
     LAYER =    12     ROW =   221     COLUMN =    48     WELL BOTTOM ELEVATION =  6395.    
 ***WARNING: WELL BOTTOM ELEVATION HAS BEEN SET TO WELL BOTTOM LAYER ELEVATION***
     LAYER =    12     ROW =   226     COLUMN =    79     WELL BOTTOM ELEVATION =  6550.    
 ***WARNING: WELL BOTTOM ELEVATION HAS BEEN SET TO WELL BOTTOM LAYER ELEVATION***
     LAYER =    12     ROW =   209     COLUMN =    83     WELL BOTTOM ELEVATION =  6536.    
 ***WARNING: WELL BOTTOM ELEVATION HAS BEEN SET TO WELL BOTTOM LAYER ELEVATION***
     LAYER =    12     ROW =   220     COLUMN =    45     WELL BOTTOM ELEVATION =  6387.    
 ***WARNING: WELL BOTTOM ELEVATION HAS BEEN SET TO WELL BOTTOM LAYER ELEVATION***
     LAYER =    12     ROW =   217     COLUMN =    84     WELL BOTTOM ELEVATION =  6546.    
 ***WARNING: WELL BOTTOM ELEVATION HAS BEEN SET TO WELL BOTTOM LAYER ELEVATION***
     LAYER =    12     ROW =   213     COLUMN =    86     WELL BOTTOM ELEVATION =  6533.    

               7 FWL5 FRACTURE WELLS WITH INPUT

     WELL #  IBOUNDWL      SKINI     INHD       Q
 ----------------------------------------------------------------------------------------------
         1         0        0.         2       NaN
         2         0        0.         2       NaN
         3         0        0.         2       NaN
         4         0        0.         2       NaN
         5         0        0.         2       NaN
         6         0        0.         2       NaN
         7         0        0.         2       NaN

 DRN1 -- DRAIN PACKAGE, VERSION 1, 9/1/87 INPUT READ FROM UNIT 12



   181 DRAINS

 LAYER   ROW   COL   ELEVATION   CONDUCTANCE   DRAIN NO.
 -------------------------------------------------------
        1     30    72    6245.        0.1000E+05       1
        1     30    73    6246.        0.1000E+05       2
        1     30    74    6246.        0.1000E+05       3
        1     30    75    6243.        0.1000E+05       4
        1     30    76    6242.        0.1000E+05       5
        1     30    77    6244.        0.1000E+05       6
        1     30    78    6247.        0.1000E+05       7
        1     30    79    6251.        0.1000E+05       8
        1     30    80    6256.        0.1000E+05       9
        1     31    80    6260.        0.1000E+05      10
        1     31    81    6258.        0.1000E+05      11
        1     31    82    6261.        0.1000E+05      12
        1     31    83    6266.        0.1000E+05      13
        1     31    84    6282.        0.1000E+05      14
        1     31    85    6284.        0.1000E+05      15
        1     31    86    6288.        0.1000E+05      16
        1     32    87    6288.        0.1000E+05      17
        1     33    92    6286.        0.1000E+05      18
        1     34    95    6320.        0.1000E+05      19
        1     35    97    6321.        0.1000E+05      20
        1     36    99    6321.        0.1000E+05      21
        1     37   100    6323.        0.1000E+05      22
        1     38   101    6350.        0.1000E+05      23
        1     39   102    6360.        0.1000E+05      24
        1     39   103    6362.        0.1000E+05      25
        1     40   104    6361.        0.1000E+05      26
        1     40   105    6363.        0.1000E+05      27
        1     41   106    6362.        0.1000E+05      28
        1     41   107    6364.        0.1000E+05      29
        1     41   108    6372.        0.1000E+05      30
        1     42   109    6378.        0.1000E+05      31
        1     43   109    6387.        0.1000E+05      32
        1     44   110    6397.        0.1000E+05      33
        1     44   111    6402.        0.1000E+05      34
        1     44   112    6405.        0.1000E+05      35
        1     45   113    6403.        0.1000E+05      36
        1     46   113    6413.        0.1000E+05      37
        1     48   114    6436.        0.1000E+05      38
        1     49   114    6440.        0.1000E+05      39
        1     50   115    6443.        0.1000E+05      40
        1     33    71    6238.        0.1000E+05      41
        1     34    72    6243.        0.1000E+05      42
        1     35    73    6250.        0.1000E+05      43
        1     36    72    6257.        0.1000E+05      44
        1     37    70    6273.        0.1000E+05      45
        1     37    71    6267.        0.1000E+05      46
        1     37    72    6265.        0.1000E+05      47
        1     38    68    6278.        0.1000E+05      48
        1     38    69    6274.        0.1000E+05      49
        1     39    67    6284.        0.1000E+05      50
        1     40    66    6306.        0.1000E+05      51
        1     41    66    6305.        0.1000E+05      52
        1     42    60    6347.        0.1000E+05      53
        1     42    61    6351.        0.1000E+05      54
        1     42    62    6340.        0.1000E+05      55
        1     42    64    6312.        0.1000E+05      56
        1     42    65    6320.        0.1000E+05      57
        1     43    59    6334.        0.1000E+05      58
        1     44    59    6341.        0.1000E+05      59
        1     45    59    6347.        0.1000E+05      60
        1     46    58    6359.        0.1000E+05      61
        1     47    59    6363.        0.1000E+05      62
        1     48    59    6374.        0.1000E+05      63
        1     49    58    6391.        0.1000E+05      64
        1     50    56    6392.        0.1000E+05      65
        1     50    57    6385.        0.1000E+05      66
        1     51    55    6382.        0.1000E+05      67
        1     52    54    6382.        0.1000E+05      68
        1     53    54    6387.        0.1000E+05      69
        1     54    54    6390.        0.1000E+05      70
        1     55    54    6391.        0.1000E+05      71
        1     56    54    6392.        0.1000E+05      72
        1     57    54    6392.        0.1000E+05      73
        1     58    54    6392.        0.1000E+05      74
        1     61    52    6395.        0.1000E+05      75
        1     61    53    6394.        0.1000E+05      76
        1     61    54    6392.        0.1000E+05      77
        1     65    32    6374.        0.1000E+05      78
        1     65    34    6374.        0.1000E+05      79
        1     65    37    6374.        0.1000E+05      80
        1     65    38    6374.        0.1000E+05      81
        1     65    39    6374.        0.1000E+05      82
        1     65    40    6374.        0.1000E+05      83
        1     65    41    6374.        0.1000E+05      84
        1     65    42    6374.        0.1000E+05      85
        1     66    43    6374.        0.1000E+05      86
        1     67    44    6384.        0.1000E+05      87
        1     67    45    6396.        0.1000E+05      88
        1     67    46    6395.        0.1000E+05      89
        1     66    47    6396.        0.1000E+05      90
        1     65    48    6395.        0.1000E+05      91
        1     32    70    6236.        0.1000E+05      92
        1     31    70    6238.        0.1000E+05      93
        1     30    70    6237.        0.1000E+05      94
        1     30    71    6241.        0.1000E+05      95
        1     32    88    6287.        0.1000E+05      96
        1     32    89    6288.        0.1000E+05      97
        1     32    90    6290.        0.1000E+05      98
        1     33    91    6291.        0.1000E+05      99
        1     33    93    6309.        0.1000E+05     100
        1     34    94    6321.        0.1000E+05     101
        1     65    33    6374.        0.1000E+05     102
        1     65    35    6374.        0.1000E+05     103
        1     65    36    6374.        0.1000E+05     104
        1     64    49    6394.        0.1000E+05     105
        1     63    50    6394.        0.1000E+05     106
        1     62    50    6394.        0.1000E+05     107
        1     61    51    6394.        0.1000E+05     108
        1     60    54    6392.        0.1000E+05     109
        1     59    54    6392.        0.1000E+05     110
        1     47   113    6425.        0.1000E+05     111
        1     51   115    6454.        0.1000E+05     112
        1     42    63    6342.        0.1000E+05     113
        1    127    58    6469.        0.2000E+05     114
        1    126    58    6469.        0.2000E+05     115
        1     81    11    6330.        0.1000E+05     116
        1     82    11    6330.        0.1000E+05     117
        1     83    11    6330.        0.1000E+05     118
        1     84    11    6330.        0.1000E+05     119
        1     85    11    6330.        0.1000E+05     120
        1     86    11    6330.        0.1000E+05     121
        1     87    11    6330.        0.1000E+05     122
        1     88    11    6330.        0.1000E+05     123
        1     89    11    6330.        0.1000E+05     124
        1     90    11    6330.        0.1000E+05     125
        1     91    11    6330.        0.1000E+05     126
        1     92    11    6330.        0.1000E+05     127
        1     93    11    6330.        0.1000E+05     128
        2     94    11    6330.        0.1000E+05     129
        2     95    11    6330.        0.1000E+05     130
        2     96    11    6330.        0.1000E+05     131
        2     97    11    6330.        0.1000E+05     132
        2     98    11    6330.        0.1000E+05     133
        2     99    11    6330.        0.1000E+05     134
        2    100    11    6330.        0.1000E+05     135
        2    101    11    6330.        0.1000E+05     136
        3    102    11    6330.        0.1000E+05     137
        3    103    11    6330.        0.1000E+05     138
        3    104    11    6330.        0.1000E+05     139
        3    105    11    6330.        0.1000E+05     140
        3    106    11    6330.        0.1000E+05     141
        3    107    11    6330.        0.1000E+05     142
        3    108    11    6330.        0.1000E+05     143
        4    109    11    6330.        0.1000E+05     144
        4    110    11    6330.        0.1000E+05     145
        4    111    11    6330.        0.1000E+05     146
        4    112    11    6330.        0.1000E+05     147
        4    113    11    6330.        0.1000E+05     148
        4    114    11    6330.        0.1000E+05     149
        4    115    11    6330.        0.1000E+05     150
        5    116    11    6330.        0.1000E+05     151
        5    117    11    6330.        0.1000E+05     152
        5    118    11    6330.        0.1000E+05     153
        5    119    11    6330.        0.1000E+05     154
        5    120    11    6330.        0.1000E+05     155
        5    121    11    6330.        0.1000E+05     156
        6    122    11    6330.        0.1000E+05     157
        6    123    11    6330.        0.1000E+05     158
        6    124    11    6330.        0.1000E+05     159
        6    125    11    6330.        0.1000E+05     160
        6    126    11    6330.        0.1000E+05     161
        7    127    11    6330.        0.1000E+05     162
        7    128    11    6330.        0.1000E+05     163
        7    129    11    6330.        0.1000E+05     164
        7    130    11    6330.        0.1000E+05     165
        8    131    11    6330.        0.1000E+05     166
        8    132    11    6330.        0.1000E+05     167
        8    133    11    6330.        0.1000E+05     168
        9    134    11    6330.        0.1000E+05     169
        9    135    11    6330.        0.1000E+05     170
        9    136    11    6330.        0.1000E+05     171
       10    137    11    6330.        0.1000E+05     172
       10    138    11    6330.        0.1000E+05     173
       11    139    11    6330.        0.1000E+05     174
       11    140    11    6330.        0.1000E+05     175
       12    141    11    6330.        0.1000E+05     176
       12    142    11    6330.        0.1000E+05     177
        6    210    34    6494.        0.1000E+05     178
        6    211    34    6494.        0.1000E+05     179
        6    212    34    6494.        0.1000E+05     180
        7    213    34    6494.        0.1000E+05     181

 RSF4 -- RECHARGE SEEPAGE FACE PACKAGE, 12/23/95  INPUT READ FROM UNIT 13



                           RECHARGE
 READING ON UNIT  13 WITH FORMAT: (10e20.12)          



     0 SEEPAGE-FACE BOUNDARY NODES
 OUTER ITERATION NUMBER:     1
 BACKTRACK COUNT=  0 ACCEPTED RESIDUAL=  0.8669240E+08INCOMING RESIDUAL=  0.8669240E+08IBT=  0
 real workspace requirement:     12880404
 Convergence in            1  iterations
 OUTER ITERATION NUMBER:     2
 BACKTRACK COUNT=  0 ACCEPTED RESIDUAL=   8695999.    INCOMING RESIDUAL=   8695999.    IBT=  0
 MAT1S did not converge
 OUTER ITERATION NUMBER:     3
 BACKTRACK COUNT=  0 ACCEPTED RESIDUAL=   8204337.    INCOMING RESIDUAL=   8204337.    IBT=  0
 Convergence in           13  iterations
 OUTER ITERATION NUMBER:     4
 BACKTRACK COUNT=  4 ACCEPTED RESIDUAL=   8202670.    INCOMING RESIDUAL=  0.1891279E+13IBT=  0
 Convergence in           13  iterations
 OUTER ITERATION NUMBER:     5
 BACKTRACK COUNT=  4 ACCEPTED RESIDUAL=   8201029.    INCOMING RESIDUAL=  0.1844369E+13IBT=  0
 Convergence in           13  iterations
 OUTER ITERATION NUMBER:     6
 BACKTRACK COUNT=  4 ACCEPTED RESIDUAL=   8199325.    INCOMING RESIDUAL=  0.1846604E+13IBT=  0
 Convergence in           13  iterations
 OUTER ITERATION NUMBER:     7
 BACKTRACK COUNT=  4 ACCEPTED RESIDUAL=   8197686.    INCOMING RESIDUAL=  0.1848752E+13IBT=  0
 Convergence in           13  iterations
 OUTER ITERATION NUMBER:     8
 BACKTRACK COUNT=  4 ACCEPTED RESIDUAL=   8196155.    INCOMING RESIDUAL=  0.1851039E+13IBT=  0
 Convergence in           13  iterations
 OUTER ITERATION NUMBER:     9
 BACKTRACK COUNT=  0 ACCEPTED RESIDUAL=   7676050.    INCOMING RESIDUAL=   7676050.    IBT=  0
 Convergence in            3  iterations
 OUTER ITERATION NUMBER:    10
 BACKTRACK COUNT=  2 ACCEPTED RESIDUAL=   7663993.    INCOMING RESIDUAL=  0.3497601E+08IBT=  0
 Convergence in            3  iterations
 OUTER ITERATION NUMBER:    11
 BACKTRACK COUNT=  1 ACCEPTED RESIDUAL=   6247076.    INCOMING RESIDUAL=  0.7487897E+10IBT=  0
 Convergence in            3  iterations
 OUTER ITERATION NUMBER:    12
 BACKTRACK COUNT=  1 ACCEPTED RESIDUAL=   5071879.    INCOMING RESIDUAL=  0.2390397E+09IBT=  0
 Convergence in            3  iterations
 OUTER ITERATION NUMBER:    13
 BACKTRACK COUNT=  1 ACCEPTED RESIDUAL=   4110615.    INCOMING RESIDUAL=  0.2866138E+08IBT=  0
 Convergence in            4  iterations
 OUTER ITERATION NUMBER:    14
 BACKTRACK COUNT=  1 ACCEPTED RESIDUAL=   3335437.    INCOMING RESIDUAL=   9690865.    IBT=  0
 Convergence in            5  iterations
 OUTER ITERATION NUMBER:    15
 BACKTRACK COUNT=  1 ACCEPTED RESIDUAL=   2702287.    INCOMING RESIDUAL=   5041646.    IBT=  0
 Convergence in            5  iterations
 OUTER ITERATION NUMBER:    16
 BACKTRACK COUNT=  1 ACCEPTED RESIDUAL=   2183629.    INCOMING RESIDUAL=   3468414.    IBT=  0
 Convergence in            5  iterations
 OUTER ITERATION NUMBER:    17
 BACKTRACK COUNT=  1 ACCEPTED RESIDUAL=   1770164.    INCOMING RESIDUAL=   2670566.    IBT=  0
 Convergence in            6  iterations
 OUTER ITERATION NUMBER:    18
 BACKTRACK COUNT=  1 ACCEPTED RESIDUAL=   1434961.    INCOMING RESIDUAL=   2881295.    IBT=  0
 Convergence in            6  iterations
 OUTER ITERATION NUMBER:    19
 BACKTRACK COUNT=  1 ACCEPTED RESIDUAL=   1169128.    INCOMING RESIDUAL=   1867982.    IBT=  0
 Convergence in            6  iterations
 OUTER ITERATION NUMBER:    20
 BACKTRACK COUNT=  0 ACCEPTED RESIDUAL=   10770.57    INCOMING RESIDUAL=   10770.57    IBT=  0
 MAT1S did not converge
 OUTER ITERATION NUMBER:    21
 BACKTRACK COUNT=  2 ACCEPTED RESIDUAL=   11314.40    INCOMING RESIDUAL=  0.2359993E+08IBT= -1
 MAT1S did not converge
 OUTER ITERATION NUMBER:    22
 BACKTRACK COUNT=  1 ACCEPTED RESIDUAL=   10055.47    INCOMING RESIDUAL=  0.1231554E+08IBT=  0
 MAT1S did not converge
 OUTER ITERATION NUMBER:    23
 BACKTRACK COUNT=  1 ACCEPTED RESIDUAL=   8153.281    INCOMING RESIDUAL=  0.1220215E+08IBT=  0
 MAT1S did not converge
 OUTER ITERATION NUMBER:    24
 BACKTRACK COUNT=  2 ACCEPTED RESIDUAL=   7990.030    INCOMING RESIDUAL=  0.1248052E+08IBT=  0
 MAT1S did not converge
 OUTER ITERATION NUMBER:    25
 BACKTRACK COUNT=  2 ACCEPTED RESIDUAL=   7830.550    INCOMING RESIDUAL=  0.1250646E+08IBT=  0
 MAT1S did not converge
 OUTER ITERATION NUMBER:    26
 BACKTRACK COUNT=  2 ACCEPTED RESIDUAL=   7671.821    INCOMING RESIDUAL=  0.1253246E+08IBT=  0
 MAT1S did not converge
 OUTER ITERATION NUMBER:    27
 BACKTRACK COUNT=  2 ACCEPTED RESIDUAL=   7519.068    INCOMING RESIDUAL=  0.1255755E+08IBT=  0
 MAT1S did not converge
 OUTER ITERATION NUMBER:    28
 BACKTRACK COUNT=  2 ACCEPTED RESIDUAL=   7349.625    INCOMING RESIDUAL=  0.1258505E+08IBT=  0
 Convergence in           15  iterations
 OUTER ITERATION NUMBER:    29
 BACKTRACK COUNT=  1 ACCEPTED RESIDUAL=   5975.399    INCOMING RESIDUAL=   1489058.    IBT=  0
 Convergence in           13  iterations
 OUTER ITERATION NUMBER:    30
 BACKTRACK COUNT=  1 ACCEPTED RESIDUAL=   4862.521    INCOMING RESIDUAL=   1890663.    IBT=  0
 Convergence in           12  iterations
0
    30 ITERATIONS FOR TIME STEP        1 IN STRESS PERIOD       1

 MAXIMUM HEAD CHANGE FOR EACH ITERATION:

    HEAD CHANGE   HEAD CHANGE   HEAD CHANGE   HEAD CHANGE   HEAD CHANGE
  LAYER,ROW,COL LAYER,ROW,COL LAYER,ROW,COL LAYER,ROW,COL LAYER,ROW,COL
 ----------------------------------------------------------------------
      16.37         14.69         1405.         1405.         1405.    
  (  2,218, 63) ( 12,217, 65) ( 12,216, 63) ( 12,216, 63) ( 12,216, 63)
      1404.         1404.        -53.24         355.6         154.5    
  ( 12,216, 63) ( 12,216, 63) ( 12,216, 64) ( 12,219, 64) ( 12,216, 64)
      94.40         61.99         42.79         30.76         22.87    
  ( 12,216, 64) ( 12,216, 64) ( 12,216, 64) ( 12,216, 64) ( 12,216, 64)
      17.53         13.72         10.89         11.57         17.81    
  ( 12,216, 64) ( 12,216, 64) ( 12,216, 64) ( 12,216, 64) ( 12,228, 69)
      16.34         14.85         13.50         13.37         13.25    
  ( 12,218, 60) ( 12,218, 60) ( 12,218, 60) ( 12,218, 60) ( 12,218, 60)
      13.13         13.01         7.976         7.782         7.607    
  ( 12,218, 60) ( 12,218, 60) ( 12,218, 62) ( 12,219, 61) ( 12,219, 61)


 MAXIMUM HEAD CHANGE IN FWL5 FOR EACH ITERATION:

    HEAD CHANGE   HEAD CHANGE   HEAD CHANGE   HEAD CHANGE   HEAD CHANGE
  WELL,  LAYER  WELL,  LAYER  WELL,  LAYER  WELL,  LAYER  WELL,  LAYER 
 ----------------------------------------------------------------------
      0.000         0.000         0.000         0.000         0.000    
  (   218,  2) (   217, 12) (   216, 12) (   216, 12) (   216, 12)
      0.000         0.000         0.000         0.000         0.000    
  (   216, 12) (   216, 12) (   216, 12) (   219, 12) (   216, 12)
      0.000         0.000         0.000         0.000         0.000    
  (   216, 12) (   216, 12) (   216, 12) (   216, 12) (   216, 12)
      0.000         0.000         0.000         0.000         0.000    
  (   216, 12) (   216, 12) (   216, 12) (   216, 12) (   228, 12)
      0.000         0.000         0.000         0.000         0.000    
  (   218, 12) (   218, 12) (   218, 12) (   218, 12) (   218, 12)
      0.000         0.000         0.000         0.000         0.000    
  (   218, 12) (   218, 12) (   218, 12) (   219, 12) (   219, 12)
0          ---- FAILED TO CONVERGE FOR DELT =   10.00     IN TIME STEP        1 OF STRESS PERIOD       1----



          TIME SUMMARY AT END OF TIME STEP         1 IN STRESS PERIOD         1
                    SECONDS       MINUTES        HOURS         DAYS          YEARS
                    -------------------------------------------------------------------
   TIME STEP LENGTH  864000.0      14400.00      240.0000      10.00000     2.7378507E-02
 STRESS PERIOD TIME  864000.0      14400.00      240.0000      10.00000     2.7378507E-02
         TOTAL TIME  864000.0      14400.00      240.0000      10.00000     2.7378507E-02
0          ---- NEW DELT OF   2.000     WILL BE USED IN TIME STEP        1 OF STRESS PERIOD       1----

0
 OUTER ITERATION NUMBER:     1
 BACKTRACK COUNT=  0 ACCEPTED RESIDUAL=  0.8669626E+08INCOMING RESIDUAL=  0.8669626E+08IBT=  0
 real workspace requirement:     12880404
 Convergence in            1  iterations
 OUTER ITERATION NUMBER:     2
 BACKTRACK COUNT=  0 ACCEPTED RESIDUAL=  0.4173034E+08INCOMING RESIDUAL=  0.4173034E+08IBT=  0
 MAT1S did not converge
 OUTER ITERATION NUMBER:     3
 BACKTRACK COUNT=  0 ACCEPTED RESIDUAL=  0.2546446E+08INCOMING RESIDUAL=  0.2546446E+08IBT=  0
 MAT1S did not converge
 OUTER ITERATION NUMBER:     4
 BACKTRACK COUNT=  0 ACCEPTED RESIDUAL=   5800303.    INCOMING RESIDUAL=   5800303.    IBT=  0
 MAT1S did not converge
 OUTER ITERATION NUMBER:     5
 BACKTRACK COUNT=  0 ACCEPTED RESIDUAL=   1367989.    INCOMING RESIDUAL=   1367989.    IBT=  0
 MAT1S did not converge
 OUTER ITERATION NUMBER:     6
 BACKTRACK COUNT=  0 ACCEPTED RESIDUAL=   873313.1    INCOMING RESIDUAL=   873313.1    IBT=  0
 MAT1S did not converge
 OUTER ITERATION NUMBER:     7
 BACKTRACK COUNT=  1 ACCEPTED RESIDUAL=   707370.0    INCOMING RESIDUAL=   3931657.    IBT=  0
 MAT1S did not converge
 OUTER ITERATION NUMBER:     8
 BACKTRACK COUNT=  1 ACCEPTED RESIDUAL=   573044.3    INCOMING RESIDUAL=   6200274.    IBT=  0
 MAT1S did not converge
 OUTER ITERATION NUMBER:     9
 BACKTRACK COUNT=  1 ACCEPTED RESIDUAL=   544675.9    INCOMING RESIDUAL=   8365668.    IBT=  0
 MAT1S did not converge
 OUTER ITERATION NUMBER:    10
 BACKTRACK COUNT=  1 ACCEPTED RESIDUAL=   441337.1    INCOMING RESIDUAL=   1326588.    IBT=  0
 MAT1S did not converge
 OUTER ITERATION NUMBER:    11
 BACKTRACK COUNT=  1 ACCEPTED RESIDUAL=   357342.3    INCOMING RESIDUAL=   2556738.    IBT=  0
 MAT1S did not converge
 OUTER ITERATION NUMBER:    12
 BACKTRACK COUNT=  1 ACCEPTED RESIDUAL=   289587.3    INCOMING RESIDUAL=   4343962.    IBT=  0
 MAT1S did not converge
 OUTER ITERATION NUMBER:    13
 BACKTRACK COUNT=  1 ACCEPTED RESIDUAL=   248108.9    INCOMING RESIDUAL=   6574367.    IBT=  0
 MAT1S did not converge
 OUTER ITERATION NUMBER:    14
 BACKTRACK COUNT=  0 ACCEPTED RESIDUAL=   809.9754    INCOMING RESIDUAL=   809.9754    IBT=  0
 Convergence in            4  iterations
 OUTER ITERATION NUMBER:    15
 BACKTRACK COUNT=  1 ACCEPTED RESIDUAL=   570.9379    INCOMING RESIDUAL=   274533.3    IBT=  0
 Convergence in            4  iterations
 OUTER ITERATION NUMBER:    16
 BACKTRACK COUNT=  1 ACCEPTED RESIDUAL=   391.0825    INCOMING RESIDUAL=   286415.1    IBT=  0
 Convergence in           10  iterations
 OUTER ITERATION NUMBER:    17
 BACKTRACK COUNT=  1 ACCEPTED RESIDUAL=   310.4196    INCOMING RESIDUAL=   288071.2    IBT=  0
 Convergence in           10  iterations
 OUTER ITERATION NUMBER:    18
 BACKTRACK COUNT=  1 ACCEPTED RESIDUAL=   240.5803    INCOMING RESIDUAL=   295649.0    IBT=  0
 Convergence in           10  iterations
 OUTER ITERATION NUMBER:    19
 BACKTRACK COUNT=  1 ACCEPTED RESIDUAL=   195.0688    INCOMING RESIDUAL=   294129.6    IBT=  0
 Convergence in            9  iterations
 OUTER ITERATION NUMBER:    20
 BACKTRACK COUNT=  1 ACCEPTED RESIDUAL=   207.5330    INCOMING RESIDUAL=   297953.9    IBT= -1
 Convergence in           10  iterations
 OUTER ITERATION NUMBER:    21
 BACKTRACK COUNT=  1 ACCEPTED RESIDUAL=   173.4078    INCOMING RESIDUAL=   320882.3    IBT=  0
 Convergence in            4  iterations
 OUTER ITERATION NUMBER:    22
 BACKTRACK COUNT=  1 ACCEPTED RESIDUAL=   159.7830    INCOMING RESIDUAL=   315565.6    IBT=  0
 Convergence in            3  iterations
 OUTER ITERATION NUMBER:    23
 BACKTRACK COUNT=  1 ACCEPTED RESIDUAL=   143.4363    INCOMING RESIDUAL=   318601.3    IBT=  0
 Convergence in            3  iterations
 OUTER ITERATION NUMBER:    24
 BACKTRACK COUNT=  1 ACCEPTED RESIDUAL=   143.6497    INCOMING RESIDUAL=   713.7932    IBT= -1
 Convergence in            3  iterations
 OUTER ITERATION NUMBER:    25
 BACKTRACK COUNT=  1 ACCEPTED RESIDUAL=   164.4830    INCOMING RESIDUAL=   708.2650    IBT= -1
 Convergence in            3  iterations
 OUTER ITERATION NUMBER:    26
 BACKTRACK COUNT=  1 ACCEPTED RESIDUAL=   148.2490    INCOMING RESIDUAL=   715.8225    IBT=  0
 Convergence in            3  iterations
 OUTER ITERATION NUMBER:    27
 BACKTRACK COUNT=  0 ACCEPTED RESIDUAL=   707.0703    INCOMING RESIDUAL=   707.0703    IBT= -1
 Convergence in            2  iterations
 OUTER ITERATION NUMBER:    28
 BACKTRACK COUNT=  0 ACCEPTED RESIDUAL=   235.4039    INCOMING RESIDUAL=   235.4039    IBT=  0
 Convergence in            2  iterations
 OUTER ITERATION NUMBER:    29
 BACKTRACK COUNT=  0 ACCEPTED RESIDUAL=   720.8898    INCOMING RESIDUAL=   720.8898    IBT= -1
 Convergence in            2  iterations
0
    29 ITERATIONS FOR TIME STEP        1 IN STRESS PERIOD       1

 MAXIMUM HEAD CHANGE FOR EACH ITERATION:

    HEAD CHANGE   HEAD CHANGE   HEAD CHANGE   HEAD CHANGE   HEAD CHANGE
  LAYER,ROW,COL LAYER,ROW,COL LAYER,ROW,COL LAYER,ROW,COL LAYER,ROW,COL
 ----------------------------------------------------------------------
      14.31        -10.39         5.546        -2.710         3.504    
  (  2,218, 63) ( 12,217, 62) ( 12,217, 60) (  9,217, 62) (  9,218, 62)
      4.444         4.954         5.474         3.491         3.880    
  (  9,218, 62) (  9,218, 62) (  9,218, 62) (  9,217, 61) (  9,217, 61)
      4.265         4.673         2.601         3.386         3.051    
  (  9,217, 61) (  9,217, 61) (  9,216, 62) ( 12,216, 62) ( 12,216, 62)
      2.756         2.482         2.229         2.007         1.810    
  ( 12,216, 62) ( 12,216, 62) ( 12,216, 62) ( 12,216, 62) ( 12,216, 62)
      1.630         1.468         1.310         1.180         1.063    
  ( 12,216, 62) ( 12,216, 62) ( 12,216, 62) ( 12,216, 62) ( 12,216, 62)
     0.9546       -0.7585       -0.3206       -0.3309E-01
  ( 12,216, 62) ( 12,220, 65) ( 12,220, 65) ( 12,217, 65)


 MAXIMUM HEAD CHANGE IN FWL5 FOR EACH ITERATION:

    HEAD CHANGE   HEAD CHANGE   HEAD CHANGE   HEAD CHANGE   HEAD CHANGE
  WELL,  LAYER  WELL,  LAYER  WELL,  LAYER  WELL,  LAYER  WELL,  LAYER 
 ----------------------------------------------------------------------
      0.000         0.000         0.000         0.000         0.000    
  (   218,  2) (   217, 12) (   217, 12) (   217,  9) (   218,  9)
      0.000         0.000         0.000         0.000         0.000    
  (   218,  9) (   218,  9) (   218,  9) (   217,  9) (   217,  9)
      0.000         0.000         0.000         0.000         0.000    
  (   217,  9) (   217,  9) (   216,  9) (   216, 12) (   216, 12)
      0.000         0.000         0.000         0.000         0.000    
  (   216, 12) (   216, 12) (   216, 12) (   216, 12) (   216, 12)
      0.000         0.000         0.000         0.000         0.000    
  (   216, 12) (   216, 12) (   216, 12) (   216, 12) (   216, 12)
      0.000         0.000         0.000         0.000    
  (   216, 12) (   220, 12) (   220, 12) (   217, 12)



          TIME SUMMARY AT END OF TIME STEP         1 IN STRESS PERIOD         1
                    SECONDS       MINUTES        HOURS         DAYS          YEARS
                    -------------------------------------------------------------------
   TIME STEP LENGTH  172800.0      2880.000      48.00000      2.000000     5.4757018E-03
 STRESS PERIOD TIME  172800.0      2880.000      48.00000      2.000000     5.4757018E-03
         TOTAL TIME  172800.0      2880.000      48.00000      2.000000     5.4757018E-03
 OUTER ITERATION NUMBER:     1
 BACKTRACK COUNT=  0 ACCEPTED RESIDUAL=  0.3697070E+08INCOMING RESIDUAL=  0.3697070E+08IBT=  0
 Convergence in            9  iterations
 OUTER ITERATION NUMBER:     2
 BACKTRACK COUNT=  0 ACCEPTED RESIDUAL=   5143.958    INCOMING RESIDUAL=   5143.958    IBT=  0
 Convergence in            2  iterations
     2 ITERATIONS FOR TIME STEP        2 IN STRESS PERIOD       1

 MAXIMUM HEAD CHANGE FOR EACH ITERATION:

    HEAD CHANGE   HEAD CHANGE   HEAD CHANGE   HEAD CHANGE   HEAD CHANGE
  LAYER,ROW,COL LAYER,ROW,COL LAYER,ROW,COL LAYER,ROW,COL LAYER,ROW,COL
 ----------------------------------------------------------------------
      2.512       -0.3437E-01
  (  2,107, 62) ( 12,250, 68)


 MAXIMUM HEAD CHANGE IN FWL5 FOR EACH ITERATION:

    HEAD CHANGE   HEAD CHANGE   HEAD CHANGE   HEAD CHANGE   HEAD CHANGE
  WELL,  LAYER  WELL,  LAYER  WELL,  LAYER  WELL,  LAYER  WELL,  LAYER 
 ----------------------------------------------------------------------
      0.000         0.000    
  (   107,  2) (   250, 12)



          TIME SUMMARY AT END OF TIME STEP         2 IN STRESS PERIOD         1
                    SECONDS       MINUTES        HOURS         DAYS          YEARS
                    -------------------------------------------------------------------
   TIME STEP LENGTH  86400.00      1440.000      24.00000      1.000000     2.7378509E-03
 STRESS PERIOD TIME  259200.0      4320.000      72.00000      3.000000     8.2135526E-03
         TOTAL TIME  259200.0      4320.000      72.00000      3.000000     8.2135526E-03
 OUTER ITERATION NUMBER:     1
 BACKTRACK COUNT=  0 ACCEPTED RESIDUAL=  0.2075602E+08INCOMING RESIDUAL=  0.2075602E+08IBT=  0
 Convergence in            9  iterations
 OUTER ITERATION NUMBER:     2
 BACKTRACK COUNT=  0 ACCEPTED RESIDUAL=   4361.696    INCOMING RESIDUAL=   4361.696    IBT=  0
 Convergence in            2  iterations
     2 ITERATIONS FOR TIME STEP        3 IN STRESS PERIOD       1

 MAXIMUM HEAD CHANGE FOR EACH ITERATION:

    HEAD CHANGE   HEAD CHANGE   HEAD CHANGE   HEAD CHANGE   HEAD CHANGE
  LAYER,ROW,COL LAYER,ROW,COL LAYER,ROW,COL LAYER,ROW,COL LAYER,ROW,COL
 ----------------------------------------------------------------------
      1.947        0.4068E-01
  (  2,107, 62) ( 12,253, 68)


 MAXIMUM HEAD CHANGE IN FWL5 FOR EACH ITERATION:

    HEAD CHANGE   HEAD CHANGE   HEAD CHANGE   HEAD CHANGE   HEAD CHANGE
  WELL,  LAYER  WELL,  LAYER  WELL,  LAYER  WELL,  LAYER  WELL,  LAYER 
 ----------------------------------------------------------------------
      0.000         0.000    
  (   107,  2) (   253, 12)



          TIME SUMMARY AT END OF TIME STEP         3 IN STRESS PERIOD         1
                    SECONDS       MINUTES        HOURS         DAYS          YEARS
                    -------------------------------------------------------------------
   TIME STEP LENGTH  95040.00      1584.000      26.40000      1.100000     3.0116360E-03
 STRESS PERIOD TIME  354240.0      5904.000      98.40000      4.100000     1.1225188E-02
         TOTAL TIME  354240.0      5904.000      98.40000      4.100000     1.1225188E-02
 OUTER ITERATION NUMBER:     1
 BACKTRACK COUNT=  0 ACCEPTED RESIDUAL=  0.1178809E+08INCOMING RESIDUAL=  0.1178809E+08IBT=  0
 Convergence in            9  iterations
 OUTER ITERATION NUMBER:     2
 BACKTRACK COUNT=  0 ACCEPTED RESIDUAL=   4661.769    INCOMING RESIDUAL=   4661.769    IBT=  0
 Convergence in            4  iterations
 OUTER ITERATION NUMBER:     3
 BACKTRACK COUNT=  0 ACCEPTED RESIDUAL=   1757.854    INCOMING RESIDUAL=   1757.854    IBT=  0
 Convergence in            2  iterations
 OUTER ITERATION NUMBER:     4
 BACKTRACK COUNT=  0 ACCEPTED RESIDUAL=   2910.849    INCOMING RESIDUAL=   2910.849    IBT= -1
 Convergence in            2  iterations
     4 ITERATIONS FOR TIME STEP        4 IN STRESS PERIOD       1

 MAXIMUM HEAD CHANGE FOR EACH ITERATION:

    HEAD CHANGE   HEAD CHANGE   HEAD CHANGE   HEAD CHANGE   HEAD CHANGE
  LAYER,ROW,COL LAYER,ROW,COL LAYER,ROW,COL LAYER,ROW,COL LAYER,ROW,COL
 ----------------------------------------------------------------------
      1.571       -0.5731       -0.1242        0.5619E-01
  (  1,106, 62) ( 12,219, 64) ( 12,219, 64) ( 12,256, 75)


 MAXIMUM HEAD CHANGE IN FWL5 FOR EACH ITERATION:

    HEAD CHANGE   HEAD CHANGE   HEAD CHANGE   HEAD CHANGE   HEAD CHANGE
  WELL,  LAYER  WELL,  LAYER  WELL,  LAYER  WELL,  LAYER  WELL,  LAYER 
 ----------------------------------------------------------------------
      0.000         0.000         0.000         0.000    
  (   106,  1) (   219, 12) (   219, 12) (   256, 12)



          TIME SUMMARY AT END OF TIME STEP         4 IN STRESS PERIOD         1
                    SECONDS       MINUTES        HOURS         DAYS          YEARS
                    -------------------------------------------------------------------
   TIME STEP LENGTH  104544.0      1742.400      29.04000      1.210000     3.3127998E-03
 STRESS PERIOD TIME  458784.0      7646.400      127.4400      5.310000     1.4537987E-02
         TOTAL TIME  458784.0      7646.400      127.4400      5.310000     1.4537987E-02
 OUTER ITERATION NUMBER:     1
 BACKTRACK COUNT=  0 ACCEPTED RESIDUAL=   6832041.    INCOMING RESIDUAL=   6832041.    IBT=  0
 Convergence in            9  iterations
 OUTER ITERATION NUMBER:     2
 BACKTRACK COUNT=  0 ACCEPTED RESIDUAL=   2943.176    INCOMING RESIDUAL=   2943.176    IBT=  0
 Convergence in            2  iterations
     2 ITERATIONS FOR TIME STEP        5 IN STRESS PERIOD       1

 MAXIMUM HEAD CHANGE FOR EACH ITERATION:

    HEAD CHANGE   HEAD CHANGE   HEAD CHANGE   HEAD CHANGE   HEAD CHANGE
  LAYER,ROW,COL LAYER,ROW,COL LAYER,ROW,COL LAYER,ROW,COL LAYER,ROW,COL
 ----------------------------------------------------------------------
      1.340        0.6109E-01
  (  1,106, 62) ( 12,219, 64)


 MAXIMUM HEAD CHANGE IN FWL5 FOR EACH ITERATION:

    HEAD CHANGE   HEAD CHANGE   HEAD CHANGE   HEAD CHANGE   HEAD CHANGE
  WELL,  LAYER  WELL,  LAYER  WELL,  LAYER  WELL,  LAYER  WELL,  LAYER 
 ----------------------------------------------------------------------
      0.000         0.000    
  (   106,  1) (   219, 12)



          TIME SUMMARY AT END OF TIME STEP         5 IN STRESS PERIOD         1
                    SECONDS       MINUTES        HOURS         DAYS          YEARS
                    -------------------------------------------------------------------
   TIME STEP LENGTH  114998.4      1916.640      31.94400      1.331000     3.6440797E-03
 STRESS PERIOD TIME  573782.4      9563.041      159.3840      6.641001     1.8182069E-02
         TOTAL TIME  573782.4      9563.041      159.3840      6.641001     1.8182069E-02
 OUTER ITERATION NUMBER:     1
 BACKTRACK COUNT=  0 ACCEPTED RESIDUAL=   4034879.    INCOMING RESIDUAL=   4034879.    IBT=  0
 Convergence in            6  iterations
 OUTER ITERATION NUMBER:     2
 BACKTRACK COUNT=  0 ACCEPTED RESIDUAL=   2889.790    INCOMING RESIDUAL=   2889.790    IBT=  0
 Convergence in            4  iterations
     2 ITERATIONS FOR TIME STEP        6 IN STRESS PERIOD       1

 MAXIMUM HEAD CHANGE FOR EACH ITERATION:

    HEAD CHANGE   HEAD CHANGE   HEAD CHANGE   HEAD CHANGE   HEAD CHANGE
  LAYER,ROW,COL LAYER,ROW,COL LAYER,ROW,COL LAYER,ROW,COL LAYER,ROW,COL
 ----------------------------------------------------------------------
      1.121       -0.8108E-01
  (  1,106, 62) ( 12,253, 68)


 MAXIMUM HEAD CHANGE IN FWL5 FOR EACH ITERATION:

    HEAD CHANGE   HEAD CHANGE   HEAD CHANGE   HEAD CHANGE   HEAD CHANGE
  WELL,  LAYER  WELL,  LAYER  WELL,  LAYER  WELL,  LAYER  WELL,  LAYER 
 ----------------------------------------------------------------------
      0.000         0.000    
  (   106,  1) (   253, 12)



          TIME SUMMARY AT END OF TIME STEP         6 IN STRESS PERIOD         1
                    SECONDS       MINUTES        HOURS         DAYS          YEARS
                    -------------------------------------------------------------------
   TIME STEP LENGTH  126498.2      2108.304      35.13840      1.464100     4.0084878E-03
 STRESS PERIOD TIME  700280.7      11671.34      194.5224      8.105101     2.2190556E-02
         TOTAL TIME  700280.7      11671.34      194.5224      8.105101     2.2190556E-02
 OUTER ITERATION NUMBER:     1
 BACKTRACK COUNT=  0 ACCEPTED RESIDUAL=   2410729.    INCOMING RESIDUAL=   2410729.    IBT=  0
 Convergence in            5  iterations
 OUTER ITERATION NUMBER:     2
 BACKTRACK COUNT=  0 ACCEPTED RESIDUAL=   1113.895    INCOMING RESIDUAL=   1113.895    IBT=  0
 Convergence in            7  iterations
 OUTER ITERATION NUMBER:     3
 BACKTRACK COUNT=  0 ACCEPTED RESIDUAL=   500.6710    INCOMING RESIDUAL=   500.6710    IBT=  0
 Convergence in            6  iterations
 OUTER ITERATION NUMBER:     4
 BACKTRACK COUNT=  1 ACCEPTED RESIDUAL=   372.4885    INCOMING RESIDUAL=   1028.056    IBT=  0
 Convergence in            6  iterations
 OUTER ITERATION NUMBER:     5
 BACKTRACK COUNT=  1 ACCEPTED RESIDUAL=   305.8836    INCOMING RESIDUAL=   1030.159    IBT=  0
 Convergence in            6  iterations
 OUTER ITERATION NUMBER:     6
 BACKTRACK COUNT=  1 ACCEPTED RESIDUAL=   249.7266    INCOMING RESIDUAL=   1027.409    IBT=  0
 Convergence in            6  iterations
 OUTER ITERATION NUMBER:     7
 BACKTRACK COUNT=  1 ACCEPTED RESIDUAL=   247.5649    INCOMING RESIDUAL=   1034.290    IBT=  0
 Convergence in            4  iterations
 OUTER ITERATION NUMBER:     8
 BACKTRACK COUNT=  1 ACCEPTED RESIDUAL=   198.3371    INCOMING RESIDUAL=   1037.153    IBT=  0
 Convergence in            6  iterations
 OUTER ITERATION NUMBER:     9
 BACKTRACK COUNT=  1 ACCEPTED RESIDUAL=   190.5387    INCOMING RESIDUAL=   1033.961    IBT=  0
 Convergence in            4  iterations
 OUTER ITERATION NUMBER:    10
 BACKTRACK COUNT=  0 ACCEPTED RESIDUAL=   1032.319    INCOMING RESIDUAL=   1032.319    IBT= -1
 Convergence in            2  iterations
    10 ITERATIONS FOR TIME STEP        7 IN STRESS PERIOD       1

 MAXIMUM HEAD CHANGE FOR EACH ITERATION:

    HEAD CHANGE   HEAD CHANGE   HEAD CHANGE   HEAD CHANGE   HEAD CHANGE
  LAYER,ROW,COL LAYER,ROW,COL LAYER,ROW,COL LAYER,ROW,COL LAYER,ROW,COL
 ----------------------------------------------------------------------
     0.9238        -2.336        -1.849        -1.668        -1.503    
  (  1,106, 62) ( 12,218, 63) ( 12,218, 63) ( 12,218, 63) ( 12,218, 63)
     -1.355        -1.220        -1.095       -0.9870        0.5791E-01
  ( 12,218, 63) ( 12,218, 63) ( 12,218, 63) ( 12,218, 63) ( 12,250, 68)


 MAXIMUM HEAD CHANGE IN FWL5 FOR EACH ITERATION:

    HEAD CHANGE   HEAD CHANGE   HEAD CHANGE   HEAD CHANGE   HEAD CHANGE
  WELL,  LAYER  WELL,  LAYER  WELL,  LAYER  WELL,  LAYER  WELL,  LAYER 
 ----------------------------------------------------------------------
      0.000         0.000         0.000         0.000         0.000    
  (   106,  1) (   218, 12) (   218, 12) (   218, 12) (   218, 12)
      0.000         0.000         0.000         0.000         0.000    
  (   218, 12) (   218, 12) (   218, 12) (   218, 12) (   250, 12)



          TIME SUMMARY AT END OF TIME STEP         7 IN STRESS PERIOD         1
                    SECONDS       MINUTES        HOURS         DAYS          YEARS
                    -------------------------------------------------------------------
   TIME STEP LENGTH  139148.1      2319.135      38.65224      1.610510     4.4093360E-03
 STRESS PERIOD TIME  839428.8      13990.48      233.1747      9.715611     2.6599891E-02
         TOTAL TIME  839428.8      13990.48      233.1747      9.715611     2.6599891E-02
 OUTER ITERATION NUMBER:     1
 BACKTRACK COUNT=  0 ACCEPTED RESIDUAL=   1454782.    INCOMING RESIDUAL=   1454782.    IBT=  0
 Convergence in            7  iterations
 OUTER ITERATION NUMBER:     2
 BACKTRACK COUNT=  0 ACCEPTED RESIDUAL=   990.3324    INCOMING RESIDUAL=   990.3324    IBT=  0
 Convergence in            4  iterations
     2 ITERATIONS FOR TIME STEP        8 IN STRESS PERIOD       1

 MAXIMUM HEAD CHANGE FOR EACH ITERATION:

    HEAD CHANGE   HEAD CHANGE   HEAD CHANGE   HEAD CHANGE   HEAD CHANGE
  LAYER,ROW,COL LAYER,ROW,COL LAYER,ROW,COL LAYER,ROW,COL LAYER,ROW,COL
 ----------------------------------------------------------------------
     -1.047        0.6554E-01
  (  1,218, 63) ( 12,218, 63)


 MAXIMUM HEAD CHANGE IN FWL5 FOR EACH ITERATION:

    HEAD CHANGE   HEAD CHANGE   HEAD CHANGE   HEAD CHANGE   HEAD CHANGE
  WELL,  LAYER  WELL,  LAYER  WELL,  LAYER  WELL,  LAYER  WELL,  LAYER 
 ----------------------------------------------------------------------
      0.000         0.000    
  (   218,  1) (   218, 12)



          TIME SUMMARY AT END OF TIME STEP         8 IN STRESS PERIOD         1
                    SECONDS       MINUTES        HOURS         DAYS          YEARS
                    -------------------------------------------------------------------
   TIME STEP LENGTH  153062.9      2551.048      42.51747      1.771561     4.8502702E-03
 STRESS PERIOD TIME  992491.6      16541.53      275.6921      11.48717     3.1450160E-02
         TOTAL TIME  992491.6      16541.53      275.6921      11.48717     3.1450160E-02
 OUTER ITERATION NUMBER:     1
 BACKTRACK COUNT=  0 ACCEPTED RESIDUAL=   884386.1    INCOMING RESIDUAL=   884386.1    IBT=  0
 Convergence in            9  iterations
 OUTER ITERATION NUMBER:     2
 BACKTRACK COUNT=  0 ACCEPTED RESIDUAL=   1045.297    INCOMING RESIDUAL=   1045.297    IBT=  0
 Convergence in            3  iterations
 OUTER ITERATION NUMBER:     3
 BACKTRACK COUNT=  0 ACCEPTED RESIDUAL=   853.0595    INCOMING RESIDUAL=   853.0595    IBT=  0
 Convergence in            2  iterations
     3 ITERATIONS FOR TIME STEP        9 IN STRESS PERIOD       1

 MAXIMUM HEAD CHANGE FOR EACH ITERATION:

    HEAD CHANGE   HEAD CHANGE   HEAD CHANGE   HEAD CHANGE   HEAD CHANGE
  LAYER,ROW,COL LAYER,ROW,COL LAYER,ROW,COL LAYER,ROW,COL LAYER,ROW,COL
 ----------------------------------------------------------------------
     -1.547        0.1317       -0.3924E-01
  ( 12,219, 62) ( 12,219, 62) ( 12,253, 68)


 MAXIMUM HEAD CHANGE IN FWL5 FOR EACH ITERATION:

    HEAD CHANGE   HEAD CHANGE   HEAD CHANGE   HEAD CHANGE   HEAD CHANGE
  WELL,  LAYER  WELL,  LAYER  WELL,  LAYER  WELL,  LAYER  WELL,  LAYER 
 ----------------------------------------------------------------------
      0.000         0.000         0.000    
  (   219, 12) (   219, 12) (   253, 12)



          TIME SUMMARY AT END OF TIME STEP         9 IN STRESS PERIOD         1
                    SECONDS       MINUTES        HOURS         DAYS          YEARS
                    -------------------------------------------------------------------
   TIME STEP LENGTH  168369.2      2806.153      46.76922      1.948717     5.3352979E-03
 STRESS PERIOD TIME  1160861.      19347.68      322.4614      13.43589     3.6785461E-02
         TOTAL TIME  1160861.      19347.68      322.4614      13.43589     3.6785461E-02
 OUTER ITERATION NUMBER:     1
 BACKTRACK COUNT=  0 ACCEPTED RESIDUAL=   541271.4    INCOMING RESIDUAL=   541271.4    IBT=  0
 Convergence in           11  iterations
 OUTER ITERATION NUMBER:     2
 BACKTRACK COUNT=  0 ACCEPTED RESIDUAL=   844.3773    INCOMING RESIDUAL=   844.3773    IBT=  0
 Convergence in            3  iterations
 OUTER ITERATION NUMBER:     3
 BACKTRACK COUNT=  0 ACCEPTED RESIDUAL=   787.3720    INCOMING RESIDUAL=   787.3720    IBT=  0
 Convergence in            2  iterations
 OUTER ITERATION NUMBER:     4
 BACKTRACK COUNT=  0 ACCEPTED RESIDUAL=   788.3330    INCOMING RESIDUAL=   788.3330    IBT= -1
 Convergence in            2  iterations
     4 ITERATIONS FOR TIME STEP       10 IN STRESS PERIOD       1

 MAXIMUM HEAD CHANGE FOR EACH ITERATION:

    HEAD CHANGE   HEAD CHANGE   HEAD CHANGE   HEAD CHANGE   HEAD CHANGE
  LAYER,ROW,COL LAYER,ROW,COL LAYER,ROW,COL LAYER,ROW,COL LAYER,ROW,COL
 ----------------------------------------------------------------------
    -0.6889       -0.4771       -0.1706       -0.3318E-01
  (  1,218, 63) ( 12,217, 63) ( 12,217, 63) ( 12,271, 43)


 MAXIMUM HEAD CHANGE IN FWL5 FOR EACH ITERATION:

    HEAD CHANGE   HEAD CHANGE   HEAD CHANGE   HEAD CHANGE   HEAD CHANGE
  WELL,  LAYER  WELL,  LAYER  WELL,  LAYER  WELL,  LAYER  WELL,  LAYER 
 ----------------------------------------------------------------------
      0.000         0.000         0.000         0.000    
  (   218,  1) (   217, 12) (   217, 12) (   271, 12)



          TIME SUMMARY AT END OF TIME STEP        10 IN STRESS PERIOD         1
                    SECONDS       MINUTES        HOURS         DAYS          YEARS
                    -------------------------------------------------------------------
   TIME STEP LENGTH  185206.1      3086.769      51.44614      2.143589     5.8688275E-03
 STRESS PERIOD TIME  1346067.      22434.45      373.9074      15.57948     4.2654283E-02
         TOTAL TIME  1346067.      22434.45      373.9074      15.57948     4.2654283E-02
 OUTER ITERATION NUMBER:     1
 BACKTRACK COUNT=  0 ACCEPTED RESIDUAL=   332520.5    INCOMING RESIDUAL=   332520.5    IBT=  0
 Convergence in           11  iterations
 OUTER ITERATION NUMBER:     2
 BACKTRACK COUNT=  0 ACCEPTED RESIDUAL=   21590.86    INCOMING RESIDUAL=   21590.86    IBT=  0
 Convergence in            3  iterations
 OUTER ITERATION NUMBER:     3
 BACKTRACK COUNT=  0 ACCEPTED RESIDUAL=   705.3393    INCOMING RESIDUAL=   705.3393    IBT=  0
 Convergence in            2  iterations
 OUTER ITERATION NUMBER:     4
 BACKTRACK COUNT=  0 ACCEPTED RESIDUAL=   244.4069    INCOMING RESIDUAL=   244.4069    IBT=  0
 Convergence in            2  iterations
     4 ITERATIONS FOR TIME STEP       11 IN STRESS PERIOD       1

 MAXIMUM HEAD CHANGE FOR EACH ITERATION:

    HEAD CHANGE   HEAD CHANGE   HEAD CHANGE   HEAD CHANGE   HEAD CHANGE
  LAYER,ROW,COL LAYER,ROW,COL LAYER,ROW,COL LAYER,ROW,COL LAYER,ROW,COL
 ----------------------------------------------------------------------
    -0.6410        0.1069       -0.1143       -0.3456E-01
  (  1,218, 63) (  2,104, 62) ( 12,250, 68) ( 12,253, 68)


 MAXIMUM HEAD CHANGE IN FWL5 FOR EACH ITERATION:

    HEAD CHANGE   HEAD CHANGE   HEAD CHANGE   HEAD CHANGE   HEAD CHANGE
  WELL,  LAYER  WELL,  LAYER  WELL,  LAYER  WELL,  LAYER  WELL,  LAYER 
 ----------------------------------------------------------------------
      0.000         0.000         0.000         0.000    
  (   218,  1) (   104,  2) (   250, 12) (   253, 12)



          TIME SUMMARY AT END OF TIME STEP        11 IN STRESS PERIOD         1
                    SECONDS       MINUTES        HOURS         DAYS          YEARS
                    -------------------------------------------------------------------
   TIME STEP LENGTH  203726.7      3395.445      56.59076      2.357948     6.4557102E-03
 STRESS PERIOD TIME  1549794.      25829.89      430.4982      17.93743     4.9109995E-02
         TOTAL TIME  1549794.      25829.89      430.4982      17.93743     4.9109995E-02
 OUTER ITERATION NUMBER:     1
 BACKTRACK COUNT=  0 ACCEPTED RESIDUAL=   194535.9    INCOMING RESIDUAL=   194535.9    IBT=  0
 Convergence in           12  iterations
 OUTER ITERATION NUMBER:     2
 BACKTRACK COUNT=  0 ACCEPTED RESIDUAL=   668.5001    INCOMING RESIDUAL=   668.5001    IBT=  0
 Convergence in            2  iterations
     2 ITERATIONS FOR TIME STEP       12 IN STRESS PERIOD       1

 MAXIMUM HEAD CHANGE FOR EACH ITERATION:

    HEAD CHANGE   HEAD CHANGE   HEAD CHANGE   HEAD CHANGE   HEAD CHANGE
  LAYER,ROW,COL LAYER,ROW,COL LAYER,ROW,COL LAYER,ROW,COL LAYER,ROW,COL
 ----------------------------------------------------------------------
    -0.5573        0.4030E-01
  (  1,218, 63) ( 12,218, 63)


 MAXIMUM HEAD CHANGE IN FWL5 FOR EACH ITERATION:

    HEAD CHANGE   HEAD CHANGE   HEAD CHANGE   HEAD CHANGE   HEAD CHANGE
  WELL,  LAYER  WELL,  LAYER  WELL,  LAYER  WELL,  LAYER  WELL,  LAYER 
 ----------------------------------------------------------------------
      0.000         0.000    
  (   218,  1) (   218, 12)



          TIME SUMMARY AT END OF TIME STEP        12 IN STRESS PERIOD         1
                    SECONDS       MINUTES        HOURS         DAYS          YEARS
                    -------------------------------------------------------------------
   TIME STEP LENGTH  224099.4      3734.990      62.24983      2.593743     7.1012811E-03
 STRESS PERIOD TIME  1773893.      29564.88      492.7480      20.53117     5.6211274E-02
         TOTAL TIME  1773893.      29564.88      492.7480      20.53117     5.6211274E-02
 OUTER ITERATION NUMBER:     1
 BACKTRACK COUNT=  0 ACCEPTED RESIDUAL=   123785.6    INCOMING RESIDUAL=   123785.6    IBT=  0
 Convergence in           12  iterations
 OUTER ITERATION NUMBER:     2
 BACKTRACK COUNT=  0 ACCEPTED RESIDUAL=   12181.25    INCOMING RESIDUAL=   12181.25    IBT=  0
 Convergence in            3  iterations
 OUTER ITERATION NUMBER:     3
 BACKTRACK COUNT=  0 ACCEPTED RESIDUAL=   594.5843    INCOMING RESIDUAL=   594.5843    IBT=  0
 Convergence in            4  iterations
     3 ITERATIONS FOR TIME STEP       13 IN STRESS PERIOD       1

 MAXIMUM HEAD CHANGE FOR EACH ITERATION:

    HEAD CHANGE   HEAD CHANGE   HEAD CHANGE   HEAD CHANGE   HEAD CHANGE
  LAYER,ROW,COL LAYER,ROW,COL LAYER,ROW,COL LAYER,ROW,COL LAYER,ROW,COL
 ----------------------------------------------------------------------
    -0.5380       -0.1414       -0.5840E-01
  (  1,218, 63) (  1,105, 62) ( 12, 33, 76)


 MAXIMUM HEAD CHANGE IN FWL5 FOR EACH ITERATION:

    HEAD CHANGE   HEAD CHANGE   HEAD CHANGE   HEAD CHANGE   HEAD CHANGE
  WELL,  LAYER  WELL,  LAYER  WELL,  LAYER  WELL,  LAYER  WELL,  LAYER 
 ----------------------------------------------------------------------
      0.000         0.000         0.000    
  (   218,  1) (   105,  1) (    33, 12)



          TIME SUMMARY AT END OF TIME STEP        13 IN STRESS PERIOD         1
                    SECONDS       MINUTES        HOURS         DAYS          YEARS
                    -------------------------------------------------------------------
   TIME STEP LENGTH  246509.3      4108.489      68.47482      2.853118     7.8114104E-03
 STRESS PERIOD TIME  2020402.      33673.37      561.2228      23.38428     6.4022683E-02
         TOTAL TIME  2020402.      33673.37      561.2228      23.38428     6.4022683E-02
 OUTER ITERATION NUMBER:     1
 BACKTRACK COUNT=  0 ACCEPTED RESIDUAL=   73277.27    INCOMING RESIDUAL=   73277.27    IBT=  0
 Convergence in           12  iterations
 OUTER ITERATION NUMBER:     2
 BACKTRACK COUNT=  0 ACCEPTED RESIDUAL=   393.0243    INCOMING RESIDUAL=   393.0243    IBT=  0
 Convergence in            2  iterations
     2 ITERATIONS FOR TIME STEP       14 IN STRESS PERIOD       1

 MAXIMUM HEAD CHANGE FOR EACH ITERATION:

    HEAD CHANGE   HEAD CHANGE   HEAD CHANGE   HEAD CHANGE   HEAD CHANGE
  LAYER,ROW,COL LAYER,ROW,COL LAYER,ROW,COL LAYER,ROW,COL LAYER,ROW,COL
 ----------------------------------------------------------------------
    -0.5037       -0.4663E-01
  (  1,218, 63) ( 12,250, 68)


 MAXIMUM HEAD CHANGE IN FWL5 FOR EACH ITERATION:

    HEAD CHANGE   HEAD CHANGE   HEAD CHANGE   HEAD CHANGE   HEAD CHANGE
  WELL,  LAYER  WELL,  LAYER  WELL,  LAYER  WELL,  LAYER  WELL,  LAYER 
 ----------------------------------------------------------------------
      0.000         0.000    
  (   218,  1) (   250, 12)



          TIME SUMMARY AT END OF TIME STEP        14 IN STRESS PERIOD         1
                    SECONDS       MINUTES        HOURS         DAYS          YEARS
                    -------------------------------------------------------------------
   TIME STEP LENGTH  271160.3      4519.338      75.32230      3.138429     8.5925497E-03
 STRESS PERIOD TIME  2291563.      38192.71      636.5452      26.52271     7.2615236E-02
         TOTAL TIME  2291563.      38192.71      636.5452      26.52271     7.2615236E-02
 OUTER ITERATION NUMBER:     1
 BACKTRACK COUNT=  0 ACCEPTED RESIDUAL=   48529.09    INCOMING RESIDUAL=   48529.09    IBT=  0
 Convergence in           12  iterations
 OUTER ITERATION NUMBER:     2
 BACKTRACK COUNT=  0 ACCEPTED RESIDUAL=   754.1220    INCOMING RESIDUAL=   754.1220    IBT=  0
 Convergence in            3  iterations
     2 ITERATIONS FOR TIME STEP       15 IN STRESS PERIOD       1

 MAXIMUM HEAD CHANGE FOR EACH ITERATION:

    HEAD CHANGE   HEAD CHANGE   HEAD CHANGE   HEAD CHANGE   HEAD CHANGE
  LAYER,ROW,COL LAYER,ROW,COL LAYER,ROW,COL LAYER,ROW,COL LAYER,ROW,COL
 ----------------------------------------------------------------------
    -0.4325       -0.6338E-01
  (  1,218, 63) ( 12,256, 75)


 MAXIMUM HEAD CHANGE IN FWL5 FOR EACH ITERATION:

    HEAD CHANGE   HEAD CHANGE   HEAD CHANGE   HEAD CHANGE   HEAD CHANGE
  WELL,  LAYER  WELL,  LAYER  WELL,  LAYER  WELL,  LAYER  WELL,  LAYER 
 ----------------------------------------------------------------------
      0.000         0.000    
  (   218,  1) (   256, 12)



          TIME SUMMARY AT END OF TIME STEP        15 IN STRESS PERIOD         1
                    SECONDS       MINUTES        HOURS         DAYS          YEARS
                    -------------------------------------------------------------------
   TIME STEP LENGTH  298276.3      4971.272      82.85453      3.452272     9.4518065E-03
 STRESS PERIOD TIME  2589839.      43163.98      719.3997      29.97499     8.2067050E-02
         TOTAL TIME  2589839.      43163.98      719.3997      29.97499     8.2067050E-02
 OUTER ITERATION NUMBER:     1
 BACKTRACK COUNT=  0 ACCEPTED RESIDUAL=   32830.17    INCOMING RESIDUAL=   32830.17    IBT=  0
 Convergence in           12  iterations
 OUTER ITERATION NUMBER:     2
 BACKTRACK COUNT=  0 ACCEPTED RESIDUAL=   291.3167    INCOMING RESIDUAL=   291.3167    IBT=  0
 Convergence in            3  iterations
 OUTER ITERATION NUMBER:     3
 BACKTRACK COUNT=  0 ACCEPTED RESIDUAL=   238.1692    INCOMING RESIDUAL=   238.1692    IBT=  0
 Convergence in            6  iterations
     3 ITERATIONS FOR TIME STEP       16 IN STRESS PERIOD       1

 MAXIMUM HEAD CHANGE FOR EACH ITERATION:

    HEAD CHANGE   HEAD CHANGE   HEAD CHANGE   HEAD CHANGE   HEAD CHANGE
  LAYER,ROW,COL LAYER,ROW,COL LAYER,ROW,COL LAYER,ROW,COL LAYER,ROW,COL
 ----------------------------------------------------------------------
    -0.3683       -0.1371        0.8494E-01
  (  1,218, 63) ( 12,250, 68) ( 12,250, 68)


 MAXIMUM HEAD CHANGE IN FWL5 FOR EACH ITERATION:

    HEAD CHANGE   HEAD CHANGE   HEAD CHANGE   HEAD CHANGE   HEAD CHANGE
  WELL,  LAYER  WELL,  LAYER  WELL,  LAYER  WELL,  LAYER  WELL,  LAYER 
 ----------------------------------------------------------------------
      0.000         0.000         0.000    
  (   218,  1) (   250, 12) (   250, 12)



          TIME SUMMARY AT END OF TIME STEP        16 IN STRESS PERIOD         1
                    SECONDS       MINUTES        HOURS         DAYS          YEARS
                    -------------------------------------------------------------------
   TIME STEP LENGTH  328104.0      5468.399      91.13999      3.797500     1.0396987E-02
 STRESS PERIOD TIME  2917943.      48632.38      810.5397      33.77249     9.2464030E-02
         TOTAL TIME  2917943.      48632.38      810.5397      33.77249     9.2464030E-02
 OUTER ITERATION NUMBER:     1
 BACKTRACK COUNT=  0 ACCEPTED RESIDUAL=   23295.36    INCOMING RESIDUAL=   23295.36    IBT=  0
 Convergence in           12  iterations
 OUTER ITERATION NUMBER:     2
 BACKTRACK COUNT=  0 ACCEPTED RESIDUAL=   210.9117    INCOMING RESIDUAL=   210.9117    IBT=  0
 Convergence in            2  iterations
     2 ITERATIONS FOR TIME STEP       17 IN STRESS PERIOD       1

 MAXIMUM HEAD CHANGE FOR EACH ITERATION:

    HEAD CHANGE   HEAD CHANGE   HEAD CHANGE   HEAD CHANGE   HEAD CHANGE
  LAYER,ROW,COL LAYER,ROW,COL LAYER,ROW,COL LAYER,ROW,COL LAYER,ROW,COL
 ----------------------------------------------------------------------
    -0.3620       -0.6653E-01
  (  1,218, 63) ( 12,256, 75)


 MAXIMUM HEAD CHANGE IN FWL5 FOR EACH ITERATION:

    HEAD CHANGE   HEAD CHANGE   HEAD CHANGE   HEAD CHANGE   HEAD CHANGE
  WELL,  LAYER  WELL,  LAYER  WELL,  LAYER  WELL,  LAYER  WELL,  LAYER 
 ----------------------------------------------------------------------
      0.000         0.000    
  (   218,  1) (   256, 12)



          TIME SUMMARY AT END OF TIME STEP        17 IN STRESS PERIOD         1
                    SECONDS       MINUTES        HOURS         DAYS          YEARS
                    -------------------------------------------------------------------
   TIME STEP LENGTH  360914.3      6015.239      100.2540      4.177249     1.1436686E-02
 STRESS PERIOD TIME  3278857.      54647.62      910.7937      37.94974     0.1039007    
         TOTAL TIME  3278857.      54647.62      910.7937      37.94974     0.1039007    
 OUTER ITERATION NUMBER:     1
 BACKTRACK COUNT=  0 ACCEPTED RESIDUAL=   17263.44    INCOMING RESIDUAL=   17263.44    IBT=  0
 Convergence in           12  iterations
 OUTER ITERATION NUMBER:     2
 BACKTRACK COUNT=  0 ACCEPTED RESIDUAL=   150.7555    INCOMING RESIDUAL=   150.7555    IBT=  0
 Convergence in            3  iterations
     2 ITERATIONS FOR TIME STEP       18 IN STRESS PERIOD       1

 MAXIMUM HEAD CHANGE FOR EACH ITERATION:

    HEAD CHANGE   HEAD CHANGE   HEAD CHANGE   HEAD CHANGE   HEAD CHANGE
  LAYER,ROW,COL LAYER,ROW,COL LAYER,ROW,COL LAYER,ROW,COL LAYER,ROW,COL
 ----------------------------------------------------------------------
    -0.3172        0.7897E-01
  (  1,218, 63) ( 12,250, 68)


 MAXIMUM HEAD CHANGE IN FWL5 FOR EACH ITERATION:

    HEAD CHANGE   HEAD CHANGE   HEAD CHANGE   HEAD CHANGE   HEAD CHANGE
  WELL,  LAYER  WELL,  LAYER  WELL,  LAYER  WELL,  LAYER  WELL,  LAYER 
 ----------------------------------------------------------------------
      0.000         0.000    
  (   218,  1) (   250, 12)



          TIME SUMMARY AT END OF TIME STEP        18 IN STRESS PERIOD         1
                    SECONDS       MINUTES        HOURS         DAYS          YEARS
                    -------------------------------------------------------------------
   TIME STEP LENGTH  397005.8      6616.764      110.2794      4.594975     1.2580356E-02
 STRESS PERIOD TIME  3675863.      61264.38      1021.073      42.54471     0.1164811    
         TOTAL TIME  3675863.      61264.38      1021.073      42.54471     0.1164811    
 OUTER ITERATION NUMBER:     1
 BACKTRACK COUNT=  0 ACCEPTED RESIDUAL=   12703.21    INCOMING RESIDUAL=   12703.21    IBT=  0
 Convergence in           12  iterations
 OUTER ITERATION NUMBER:     2
 BACKTRACK COUNT=  0 ACCEPTED RESIDUAL=   137.3222    INCOMING RESIDUAL=   137.3222    IBT=  0
 Convergence in            3  iterations
     2 ITERATIONS FOR TIME STEP       19 IN STRESS PERIOD       1

 MAXIMUM HEAD CHANGE FOR EACH ITERATION:

    HEAD CHANGE   HEAD CHANGE   HEAD CHANGE   HEAD CHANGE   HEAD CHANGE
  LAYER,ROW,COL LAYER,ROW,COL LAYER,ROW,COL LAYER,ROW,COL LAYER,ROW,COL
 ----------------------------------------------------------------------
    -0.7039        0.3900E-01
  ( 12,229, 69) ( 12,270, 56)


 MAXIMUM HEAD CHANGE IN FWL5 FOR EACH ITERATION:

    HEAD CHANGE   HEAD CHANGE   HEAD CHANGE   HEAD CHANGE   HEAD CHANGE
  WELL,  LAYER  WELL,  LAYER  WELL,  LAYER  WELL,  LAYER  WELL,  LAYER 
 ----------------------------------------------------------------------
      0.000         0.000    
  (   229, 12) (   270, 12)



          TIME SUMMARY AT END OF TIME STEP        19 IN STRESS PERIOD         1
                    SECONDS       MINUTES        HOURS         DAYS          YEARS
                    -------------------------------------------------------------------
   TIME STEP LENGTH  436706.4      7278.440      121.3073      5.054472     1.3838392E-02
 STRESS PERIOD TIME  4112570.      68542.83      1142.380      47.59919     0.1303195    
         TOTAL TIME  4112570.      68542.83      1142.380      47.59919     0.1303195    
 OUTER ITERATION NUMBER:     1
 BACKTRACK COUNT=  0 ACCEPTED RESIDUAL=   9983.138    INCOMING RESIDUAL=   9983.138    IBT=  0
 Convergence in           12  iterations
 OUTER ITERATION NUMBER:     2
 BACKTRACK COUNT=  0 ACCEPTED RESIDUAL=   154.4286    INCOMING RESIDUAL=   154.4286    IBT=  0
 Convergence in            3  iterations
     2 ITERATIONS FOR TIME STEP       20 IN STRESS PERIOD       1

 MAXIMUM HEAD CHANGE FOR EACH ITERATION:

    HEAD CHANGE   HEAD CHANGE   HEAD CHANGE   HEAD CHANGE   HEAD CHANGE
  LAYER,ROW,COL LAYER,ROW,COL LAYER,ROW,COL LAYER,ROW,COL LAYER,ROW,COL
 ----------------------------------------------------------------------
     0.3251       -0.8575E-01
  (  1,218, 57) ( 12,250, 68)


 MAXIMUM HEAD CHANGE IN FWL5 FOR EACH ITERATION:

    HEAD CHANGE   HEAD CHANGE   HEAD CHANGE   HEAD CHANGE   HEAD CHANGE
  WELL,  LAYER  WELL,  LAYER  WELL,  LAYER  WELL,  LAYER  WELL,  LAYER 
 ----------------------------------------------------------------------
      0.000         0.000    
  (   218,  1) (   250, 12)



          TIME SUMMARY AT END OF TIME STEP        20 IN STRESS PERIOD         1
                    SECONDS       MINUTES        HOURS         DAYS          YEARS
                    -------------------------------------------------------------------
   TIME STEP LENGTH  480377.0      8006.284      133.4381      5.559919     1.5222230E-02
 STRESS PERIOD TIME  4592946.      76549.11      1275.818      53.15910     0.1455417    
         TOTAL TIME  4592946.      76549.11      1275.818      53.15910     0.1455417    
 OUTER ITERATION NUMBER:     1
 BACKTRACK COUNT=  0 ACCEPTED RESIDUAL=   8008.358    INCOMING RESIDUAL=   8008.358    IBT=  0
 Convergence in           12  iterations
 OUTER ITERATION NUMBER:     2
 BACKTRACK COUNT=  0 ACCEPTED RESIDUAL=   66.96048    INCOMING RESIDUAL=   66.96048    IBT=  0
 Convergence in            3  iterations
 OUTER ITERATION NUMBER:     3
 BACKTRACK COUNT=  0 ACCEPTED RESIDUAL=   29.92213    INCOMING RESIDUAL=   29.92213    IBT=  0
 Convergence in            3  iterations
 OUTER ITERATION NUMBER:     4
 BACKTRACK COUNT=  0 ACCEPTED RESIDUAL=   50.40515    INCOMING RESIDUAL=   50.40515    IBT= -1
 Convergence in            2  iterations
     4 ITERATIONS FOR TIME STEP       21 IN STRESS PERIOD       1

 MAXIMUM HEAD CHANGE FOR EACH ITERATION:

    HEAD CHANGE   HEAD CHANGE   HEAD CHANGE   HEAD CHANGE   HEAD CHANGE
  LAYER,ROW,COL LAYER,ROW,COL LAYER,ROW,COL LAYER,ROW,COL LAYER,ROW,COL
 ----------------------------------------------------------------------
     0.3328       -0.7081       -0.5443       -0.7678E-01
  (  1,218, 57) ( 12,221, 63) ( 12,221, 63) ( 12,250, 68)


 MAXIMUM HEAD CHANGE IN FWL5 FOR EACH ITERATION:

    HEAD CHANGE   HEAD CHANGE   HEAD CHANGE   HEAD CHANGE   HEAD CHANGE
  WELL,  LAYER  WELL,  LAYER  WELL,  LAYER  WELL,  LAYER  WELL,  LAYER 
 ----------------------------------------------------------------------
      0.000         0.000         0.000         0.000    
  (   218,  1) (   221, 12) (   221, 12) (   250, 12)



          TIME SUMMARY AT END OF TIME STEP        21 IN STRESS PERIOD         1
                    SECONDS       MINUTES        HOURS         DAYS          YEARS
                    -------------------------------------------------------------------
   TIME STEP LENGTH  528414.8      8806.912      146.7819      6.115911     1.6744453E-02
 STRESS PERIOD TIME  5121362.      85356.02      1422.600      59.27501     0.1622861    
         TOTAL TIME  5121362.      85356.02      1422.600      59.27501     0.1622861    
 OUTER ITERATION NUMBER:     1
 BACKTRACK COUNT=  0 ACCEPTED RESIDUAL=   6328.758    INCOMING RESIDUAL=   6328.758    IBT=  0
 Convergence in           12  iterations
 OUTER ITERATION NUMBER:     2
 BACKTRACK COUNT=  0 ACCEPTED RESIDUAL=   52.31764    INCOMING RESIDUAL=   52.31764    IBT=  0
 Convergence in            3  iterations
     2 ITERATIONS FOR TIME STEP       22 IN STRESS PERIOD       1

 MAXIMUM HEAD CHANGE FOR EACH ITERATION:

    HEAD CHANGE   HEAD CHANGE   HEAD CHANGE   HEAD CHANGE   HEAD CHANGE
  LAYER,ROW,COL LAYER,ROW,COL LAYER,ROW,COL LAYER,ROW,COL LAYER,ROW,COL
 ----------------------------------------------------------------------
     -1.743        0.9359E-01
  ( 12,221, 63) ( 12,221, 63)


 MAXIMUM HEAD CHANGE IN FWL5 FOR EACH ITERATION:

    HEAD CHANGE   HEAD CHANGE   HEAD CHANGE   HEAD CHANGE   HEAD CHANGE
  WELL,  LAYER  WELL,  LAYER  WELL,  LAYER  WELL,  LAYER  WELL,  LAYER 
 ----------------------------------------------------------------------
      0.000         0.000    
  (   221, 12) (   221, 12)



          TIME SUMMARY AT END OF TIME STEP        22 IN STRESS PERIOD         1
                    SECONDS       MINUTES        HOURS         DAYS          YEARS
                    -------------------------------------------------------------------
   TIME STEP LENGTH  581256.2      9687.604      161.4601      6.727503     1.8418899E-02
 STRESS PERIOD TIME  5702618.      95043.62      1584.060      66.00252     0.1807050    
         TOTAL TIME  5702618.      95043.62      1584.060      66.00252     0.1807050    
 OUTER ITERATION NUMBER:     1
 BACKTRACK COUNT=  0 ACCEPTED RESIDUAL=   5992.843    INCOMING RESIDUAL=   5992.843    IBT=  0
 Convergence in           13  iterations
 OUTER ITERATION NUMBER:     2
 BACKTRACK COUNT=  0 ACCEPTED RESIDUAL=   60.11969    INCOMING RESIDUAL=   60.11969    IBT=  0
 Convergence in           12  iterations
 OUTER ITERATION NUMBER:     3
 BACKTRACK COUNT=  0 ACCEPTED RESIDUAL=   47.72001    INCOMING RESIDUAL=   47.72001    IBT=  0
 Convergence in            3  iterations
     3 ITERATIONS FOR TIME STEP       23 IN STRESS PERIOD       1

 MAXIMUM HEAD CHANGE FOR EACH ITERATION:

    HEAD CHANGE   HEAD CHANGE   HEAD CHANGE   HEAD CHANGE   HEAD CHANGE
  LAYER,ROW,COL LAYER,ROW,COL LAYER,ROW,COL LAYER,ROW,COL LAYER,ROW,COL
 ----------------------------------------------------------------------
    -0.6801       -0.5682        0.3195E-01
  ( 12,220, 62) ( 12,217, 62) ( 12,217, 66)


 MAXIMUM HEAD CHANGE IN FWL5 FOR EACH ITERATION:

    HEAD CHANGE   HEAD CHANGE   HEAD CHANGE   HEAD CHANGE   HEAD CHANGE
  WELL,  LAYER  WELL,  LAYER  WELL,  LAYER  WELL,  LAYER  WELL,  LAYER 
 ----------------------------------------------------------------------
      0.000         0.000         0.000    
  (   220, 12) (   217, 12) (   217, 12)



          TIME SUMMARY AT END OF TIME STEP        23 IN STRESS PERIOD         1
                    SECONDS       MINUTES        HOURS         DAYS          YEARS
                    -------------------------------------------------------------------
   TIME STEP LENGTH  639381.9      10656.36      177.6061      7.400253     2.0260789E-02
 STRESS PERIOD TIME  6342000.      105700.0      1761.667      73.40277     0.2009658    
         TOTAL TIME  6342000.      105700.0      1761.667      73.40277     0.2009658    
 OUTER ITERATION NUMBER:     1
 BACKTRACK COUNT=  0 ACCEPTED RESIDUAL=   5162.332    INCOMING RESIDUAL=   5162.332    IBT=  0
 Convergence in           11  iterations
 OUTER ITERATION NUMBER:     2
 BACKTRACK COUNT=  0 ACCEPTED RESIDUAL=   280.0055    INCOMING RESIDUAL=   280.0055    IBT=  0
 Convergence in            9  iterations
 OUTER ITERATION NUMBER:     3
 BACKTRACK COUNT=  0 ACCEPTED RESIDUAL=   35.68618    INCOMING RESIDUAL=   35.68618    IBT=  0
 Convergence in            3  iterations
     3 ITERATIONS FOR TIME STEP       24 IN STRESS PERIOD       1

 MAXIMUM HEAD CHANGE FOR EACH ITERATION:

    HEAD CHANGE   HEAD CHANGE   HEAD CHANGE   HEAD CHANGE   HEAD CHANGE
  LAYER,ROW,COL LAYER,ROW,COL LAYER,ROW,COL LAYER,ROW,COL LAYER,ROW,COL
 ----------------------------------------------------------------------
     0.3388       -0.1129       -0.4093E-01
  ( 12,218, 57) (  2,220, 58) ( 12,270, 56)


 MAXIMUM HEAD CHANGE IN FWL5 FOR EACH ITERATION:

    HEAD CHANGE   HEAD CHANGE   HEAD CHANGE   HEAD CHANGE   HEAD CHANGE
  WELL,  LAYER  WELL,  LAYER  WELL,  LAYER  WELL,  LAYER  WELL,  LAYER 
 ----------------------------------------------------------------------
      0.000         0.000         0.000    
  (   218, 12) (   220,  2) (   270, 12)



          TIME SUMMARY AT END OF TIME STEP        24 IN STRESS PERIOD         1
                    SECONDS       MINUTES        HOURS         DAYS          YEARS
                    -------------------------------------------------------------------
   TIME STEP LENGTH  703320.1      11722.00      195.3667      8.140279     2.2286870E-02
 STRESS PERIOD TIME  7045320.      117422.0      1957.033      81.54305     0.2232527    
         TOTAL TIME  7045320.      117422.0      1957.033      81.54305     0.2232527    
 OUTER ITERATION NUMBER:     1
 BACKTRACK COUNT=  0 ACCEPTED RESIDUAL=   4661.649    INCOMING RESIDUAL=   4661.649    IBT=  0
 Convergence in           11  iterations
 OUTER ITERATION NUMBER:     2
 BACKTRACK COUNT=  0 ACCEPTED RESIDUAL=   103.1493    INCOMING RESIDUAL=   103.1493    IBT=  0
 Convergence in            3  iterations
     2 ITERATIONS FOR TIME STEP       25 IN STRESS PERIOD       1

 MAXIMUM HEAD CHANGE FOR EACH ITERATION:

    HEAD CHANGE   HEAD CHANGE   HEAD CHANGE   HEAD CHANGE   HEAD CHANGE
  LAYER,ROW,COL LAYER,ROW,COL LAYER,ROW,COL LAYER,ROW,COL LAYER,ROW,COL
 ----------------------------------------------------------------------
     0.3297       -0.4773E-01
  ( 12,218, 57) (  1,221, 60)


 MAXIMUM HEAD CHANGE IN FWL5 FOR EACH ITERATION:

    HEAD CHANGE   HEAD CHANGE   HEAD CHANGE   HEAD CHANGE   HEAD CHANGE
  WELL,  LAYER  WELL,  LAYER  WELL,  LAYER  WELL,  LAYER  WELL,  LAYER 
 ----------------------------------------------------------------------
      0.000         0.000    
  (   218, 12) (   221,  1)



          TIME SUMMARY AT END OF TIME STEP        25 IN STRESS PERIOD         1
                    SECONDS       MINUTES        HOURS         DAYS          YEARS
                    -------------------------------------------------------------------
   TIME STEP LENGTH  773652.1      12894.20      214.9034      8.954307     2.4515556E-02
 STRESS PERIOD TIME  7818972.      130316.2      2171.937      90.49735     0.2477683    
         TOTAL TIME  7818972.      130316.2      2171.937      90.49735     0.2477683    
 OUTER ITERATION NUMBER:     1
 BACKTRACK COUNT=  0 ACCEPTED RESIDUAL=   4213.111    INCOMING RESIDUAL=   4213.111    IBT=  0
 Convergence in           10  iterations
 OUTER ITERATION NUMBER:     2
 BACKTRACK COUNT=  0 ACCEPTED RESIDUAL=   35.08826    INCOMING RESIDUAL=   35.08826    IBT=  0
 Convergence in            2  iterations
     2 ITERATIONS FOR TIME STEP       26 IN STRESS PERIOD       1

 MAXIMUM HEAD CHANGE FOR EACH ITERATION:

    HEAD CHANGE   HEAD CHANGE   HEAD CHANGE   HEAD CHANGE   HEAD CHANGE
  LAYER,ROW,COL LAYER,ROW,COL LAYER,ROW,COL LAYER,ROW,COL LAYER,ROW,COL
 ----------------------------------------------------------------------
     0.3036       -0.3161E-01
  ( 12,218, 57) ( 12,253, 68)


 MAXIMUM HEAD CHANGE IN FWL5 FOR EACH ITERATION:

    HEAD CHANGE   HEAD CHANGE   HEAD CHANGE   HEAD CHANGE   HEAD CHANGE
  WELL,  LAYER  WELL,  LAYER  WELL,  LAYER  WELL,  LAYER  WELL,  LAYER 
 ----------------------------------------------------------------------
      0.000         0.000    
  (   218, 12) (   253, 12)
 UBUDSV SAVING "         STORAGE" ON UNIT    50 AT TIME STEP    26, STRESS PERIOD     1
 UBUDSV SAVING "   CONSTANT HEAD" ON UNIT    50 AT TIME STEP    26, STRESS PERIOD     1
 UBUDSV SAVING "FLOW RIGHT FACE " ON UNIT    50 AT TIME STEP    26, STRESS PERIOD     1
 UBUDSV SAVING "FLOW FRONT FACE " ON UNIT    50 AT TIME STEP    26, STRESS PERIOD     1
 UBUDSV SAVING "FLOW LOWER FACE " ON UNIT    50 AT TIME STEP    26, STRESS PERIOD     1
 UBUDSV SAVING "     WL5 STORAGE" ON UNIT   155 AT TIME STEP    26, STRESS PERIOD     1
 UBUDSV SAVING "        WL5 FLOW" ON UNIT   155 AT TIME STEP    26, STRESS PERIOD     1
 UBUDSV SAVING "FLOW WL5 BOT FCE" ON UNIT   155 AT TIME STEP    26, STRESS PERIOD     1
 UBUDSV SAVING "WL5 CELL TO WELL" ON UNIT   155 AT TIME STEP    26, STRESS PERIOD     1
 UBUDSV SAVING "           WELLS" ON UNIT    50 AT TIME STEP    26, STRESS PERIOD     1
 UBUDSV SAVING "          DRAINS" ON UNIT    50 AT TIME STEP    26, STRESS PERIOD     1
 UBUDSV SAVING "        RECHARGE" ON UNIT    50 AT TIME STEP    26, STRESS PERIOD     1

 HEAD WILL BE SAVED ON UNIT  30 AT END OF TIME STEP        26, STRESS PERIOD       1

 DRAWDOWN WILL BE SAVED ON UNIT  31 AT END OF TIME STEP        26, STRESS PERIOD       1
1
  VOLUMETRIC BUDGET FOR ENTIRE MODEL AT END OF TIME STEP      26 IN STRESS PERIOD       1
  -----------------------------------------------------------------------------

     CUMULATIVE VOLUMES      L**3       RATES FOR THIS TIME STEP      L**3/T
     ------------------                 ------------------------

           IN:                                      IN:
           ---                                      ---
             STORAGE =      295288.4062               STORAGE =         885.7758
       CONSTANT HEAD =           0.0000         CONSTANT HEAD =           0.0000
         WL5 STORAGE =           0.0000           WL5 STORAGE =           0.0000
            WL5 FLOW =           0.0000              WL5 FLOW =           0.0000
               WELLS =       33931.7031                 WELLS =         339.3170
              DRAINS =           0.0000                DRAINS =           0.0000
            RECHARGE =     9700231.0000              RECHARGE =       97002.3125

            TOTAL IN =    10029451.1094              TOTAL IN =       98227.4053

          OUT:                                     OUT:
          ----                                     ----
             STORAGE =      315379.3750               STORAGE =        1123.6709
       CONSTANT HEAD =           0.0000         CONSTANT HEAD =           0.0000
         WL5 STORAGE =           0.0000           WL5 STORAGE =           0.0000
            WL5 FLOW =           0.0000              WL5 FLOW =           0.0000
               WELLS =        9399.9990                 WELLS =          94.0000
              DRAINS =     9689876.0000                DRAINS =       96838.3594
            RECHARGE =           0.0000              RECHARGE =           0.0000

           TOTAL OUT =    10014655.3740             TOTAL OUT =       98056.0303

            IN - OUT =       14795.7354              IN - OUT =         171.3750

 PERCENT DISCREPANCY =           0.15     PERCENT DISCREPANCY =           0.17






          TIME SUMMARY AT END OF TIME STEP        26 IN STRESS PERIOD         1
                    SECONDS       MINUTES        HOURS         DAYS          YEARS
                    -------------------------------------------------------------------
   TIME STEP LENGTH  821028.4      13683.81      228.0634      9.502644     2.6016820E-02
 STRESS PERIOD TIME  8640000.      144000.0      2400.000      100.0000     0.2737851    
         TOTAL TIME  8640000.      144000.0      2400.000      100.0000     0.2737851    
1
 OUTER ITERATION NUMBER:     1
 BACKTRACK COUNT=  0 ACCEPTED RESIDUAL=   4398.536    INCOMING RESIDUAL=   4398.536    IBT=  0
 Convergence in            7  iterations
 OUTER ITERATION NUMBER:     2
 BACKTRACK COUNT=  0 ACCEPTED RESIDUAL=   34.84045    INCOMING RESIDUAL=   34.84045    IBT=  0
 Convergence in            8  iterations
     2 ITERATIONS FOR TIME STEP       27 IN STRESS PERIOD       1

 MAXIMUM HEAD CHANGE FOR EACH ITERATION:

    HEAD CHANGE   HEAD CHANGE   HEAD CHANGE   HEAD CHANGE   HEAD CHANGE
  LAYER,ROW,COL LAYER,ROW,COL LAYER,ROW,COL LAYER,ROW,COL LAYER,ROW,COL
 ----------------------------------------------------------------------
     0.2886        0.3806E-01
  ( 12,218, 57) ( 12,256, 75)


 MAXIMUM HEAD CHANGE IN FWL5 FOR EACH ITERATION:

    HEAD CHANGE   HEAD CHANGE   HEAD CHANGE   HEAD CHANGE   HEAD CHANGE
  WELL,  LAYER  WELL,  LAYER  WELL,  LAYER  WELL,  LAYER  WELL,  LAYER 
 ----------------------------------------------------------------------
      0.000         0.000    
  (   218, 12) (   256, 12)



          TIME SUMMARY AT END OF TIME STEP        27 IN STRESS PERIOD         1
                    SECONDS       MINUTES        HOURS         DAYS          YEARS
                    -------------------------------------------------------------------
   TIME STEP LENGTH  903131.2      15052.19      250.8698      10.45291     2.8618503E-02
 STRESS PERIOD TIME  9543131.      159052.2      2650.870      110.4529     0.3024036    
         TOTAL TIME  9543131.      159052.2      2650.870      110.4529     0.3024036    
 OUTER ITERATION NUMBER:     1
 BACKTRACK COUNT=  0 ACCEPTED RESIDUAL=   3690.245    INCOMING RESIDUAL=   3690.245    IBT=  0
 Convergence in            7  iterations
 OUTER ITERATION NUMBER:     2
 BACKTRACK COUNT=  0 ACCEPTED RESIDUAL=   31.98126    INCOMING RESIDUAL=   31.98126    IBT=  0
 Convergence in            4  iterations
     2 ITERATIONS FOR TIME STEP       28 IN STRESS PERIOD       1

 MAXIMUM HEAD CHANGE FOR EACH ITERATION:

    HEAD CHANGE   HEAD CHANGE   HEAD CHANGE   HEAD CHANGE   HEAD CHANGE
  LAYER,ROW,COL LAYER,ROW,COL LAYER,ROW,COL LAYER,ROW,COL LAYER,ROW,COL
 ----------------------------------------------------------------------
     0.2683        0.8330E-01
  (  1,218, 57) ( 12,250, 68)


 MAXIMUM HEAD CHANGE IN FWL5 FOR EACH ITERATION:

    HEAD CHANGE   HEAD CHANGE   HEAD CHANGE   HEAD CHANGE   HEAD CHANGE
  WELL,  LAYER  WELL,  LAYER  WELL,  LAYER  WELL,  LAYER  WELL,  LAYER 
 ----------------------------------------------------------------------
      0.000         0.000    
  (   218,  1) (   250, 12)



          TIME SUMMARY AT END OF TIME STEP        28 IN STRESS PERIOD         1
                    SECONDS       MINUTES        HOURS         DAYS          YEARS
                    -------------------------------------------------------------------
   TIME STEP LENGTH  993444.4      16557.41      275.9568      11.49820     3.1480353E-02
 STRESS PERIOD TIME 1.0536576E+07  175609.6      2926.827      121.9511     0.3338839    
         TOTAL TIME 1.0536576E+07  175609.6      2926.827      121.9511     0.3338839    
 OUTER ITERATION NUMBER:     1
 BACKTRACK COUNT=  0 ACCEPTED RESIDUAL=   3546.348    INCOMING RESIDUAL=   3546.348    IBT=  0
 Convergence in            7  iterations
 OUTER ITERATION NUMBER:     2
 BACKTRACK COUNT=  0 ACCEPTED RESIDUAL=   26.64883    INCOMING RESIDUAL=   26.64883    IBT=  0
 Convergence in           12  iterations
     2 ITERATIONS FOR TIME STEP       29 IN STRESS PERIOD       1

 MAXIMUM HEAD CHANGE FOR EACH ITERATION:

    HEAD CHANGE   HEAD CHANGE   HEAD CHANGE   HEAD CHANGE   HEAD CHANGE
  LAYER,ROW,COL LAYER,ROW,COL LAYER,ROW,COL LAYER,ROW,COL LAYER,ROW,COL
 ----------------------------------------------------------------------
     0.2455       -0.5326E-01
  (  1,218, 57) (  1,223, 58)


 MAXIMUM HEAD CHANGE IN FWL5 FOR EACH ITERATION:

    HEAD CHANGE   HEAD CHANGE   HEAD CHANGE   HEAD CHANGE   HEAD CHANGE
  WELL,  LAYER  WELL,  LAYER  WELL,  LAYER  WELL,  LAYER  WELL,  LAYER 
 ----------------------------------------------------------------------
      0.000         0.000    
  (   218,  1) (   223,  1)



          TIME SUMMARY AT END OF TIME STEP        29 IN STRESS PERIOD         1
                    SECONDS       MINUTES        HOURS         DAYS          YEARS
                    -------------------------------------------------------------------
   TIME STEP LENGTH  1092789.      18213.15      303.5525      12.64802     3.4628388E-02
 STRESS PERIOD TIME 1.1629364E+07  193822.7      3230.379      134.5991     0.3685123    
         TOTAL TIME 1.1629364E+07  193822.7      3230.379      134.5991     0.3685123    
 OUTER ITERATION NUMBER:     1
 BACKTRACK COUNT=  0 ACCEPTED RESIDUAL=   3346.437    INCOMING RESIDUAL=   3346.437    IBT=  0
 Convergence in            7  iterations
 OUTER ITERATION NUMBER:     2
 BACKTRACK COUNT=  0 ACCEPTED RESIDUAL=   496.5100    INCOMING RESIDUAL=   496.5100    IBT=  0
 MAT1S did not converge
 OUTER ITERATION NUMBER:     3
 BACKTRACK COUNT=  0 ACCEPTED RESIDUAL=   56.54095    INCOMING RESIDUAL=   56.54095    IBT=  0
 Convergence in           13  iterations
     3 ITERATIONS FOR TIME STEP       30 IN STRESS PERIOD       1

 MAXIMUM HEAD CHANGE FOR EACH ITERATION:

    HEAD CHANGE   HEAD CHANGE   HEAD CHANGE   HEAD CHANGE   HEAD CHANGE
  LAYER,ROW,COL LAYER,ROW,COL LAYER,ROW,COL LAYER,ROW,COL LAYER,ROW,COL
 ----------------------------------------------------------------------
     0.2419       -0.1394       -0.4633E-01
  ( 11,220, 57) (  4,220, 62) ( 12,220, 62)


 MAXIMUM HEAD CHANGE IN FWL5 FOR EACH ITERATION:

    HEAD CHANGE   HEAD CHANGE   HEAD CHANGE   HEAD CHANGE   HEAD CHANGE
  WELL,  LAYER  WELL,  LAYER  WELL,  LAYER  WELL,  LAYER  WELL,  LAYER 
 ----------------------------------------------------------------------
      0.000         0.000         0.000    
  (   220, 11) (   220,  4) (   220, 12)



          TIME SUMMARY AT END OF TIME STEP        30 IN STRESS PERIOD         1
                    SECONDS       MINUTES        HOURS         DAYS          YEARS
                    -------------------------------------------------------------------
   TIME STEP LENGTH  1202068.      20034.46      333.9077      13.91282     3.8091231E-02
 STRESS PERIOD TIME 1.2831432E+07  213857.2      3564.287      148.5119     0.4066035    
         TOTAL TIME 1.2831432E+07  213857.2      3564.287      148.5119     0.4066035    
 OUTER ITERATION NUMBER:     1
 BACKTRACK COUNT=  0 ACCEPTED RESIDUAL=   3131.285    INCOMING RESIDUAL=   3131.285    IBT=  0
 Convergence in            7  iterations
 OUTER ITERATION NUMBER:     2
 BACKTRACK COUNT=  0 ACCEPTED RESIDUAL=   82.23843    INCOMING RESIDUAL=   82.23843    IBT=  0
 Convergence in            6  iterations
 OUTER ITERATION NUMBER:     3
 BACKTRACK COUNT=  0 ACCEPTED RESIDUAL=   11.32242    INCOMING RESIDUAL=   11.32242    IBT=  0
 Convergence in            3  iterations
     3 ITERATIONS FOR TIME STEP       31 IN STRESS PERIOD       1

 MAXIMUM HEAD CHANGE FOR EACH ITERATION:

    HEAD CHANGE   HEAD CHANGE   HEAD CHANGE   HEAD CHANGE   HEAD CHANGE
  LAYER,ROW,COL LAYER,ROW,COL LAYER,ROW,COL LAYER,ROW,COL LAYER,ROW,COL
 ----------------------------------------------------------------------
     0.2727       -0.1504       -0.4889E-01
  ( 12,220, 57) (  3,220, 57) ( 12,220, 57)


 MAXIMUM HEAD CHANGE IN FWL5 FOR EACH ITERATION:

    HEAD CHANGE   HEAD CHANGE   HEAD CHANGE   HEAD CHANGE   HEAD CHANGE
  WELL,  LAYER  WELL,  LAYER  WELL,  LAYER  WELL,  LAYER  WELL,  LAYER 
 ----------------------------------------------------------------------
      0.000         0.000         0.000    
  (   220, 12) (   220,  3) (   220, 12)



          TIME SUMMARY AT END OF TIME STEP        31 IN STRESS PERIOD         1
                    SECONDS       MINUTES        HOURS         DAYS          YEARS
                    -------------------------------------------------------------------
   TIME STEP LENGTH  1322274.      22037.91      367.2985      15.30410     4.1900352E-02
 STRESS PERIOD TIME 1.4153707E+07  235895.1      3931.585      163.8161     0.4485039    
         TOTAL TIME 1.4153707E+07  235895.1      3931.585      163.8161     0.4485039    
 OUTER ITERATION NUMBER:     1
 BACKTRACK COUNT=  0 ACCEPTED RESIDUAL=   2700.526    INCOMING RESIDUAL=   2700.526    IBT=  0
 Convergence in            7  iterations
 OUTER ITERATION NUMBER:     2
 BACKTRACK COUNT=  0 ACCEPTED RESIDUAL=   83.66182    INCOMING RESIDUAL=   83.66182    IBT=  0
 Convergence in            8  iterations
     2 ITERATIONS FOR TIME STEP       32 IN STRESS PERIOD       1

 MAXIMUM HEAD CHANGE FOR EACH ITERATION:

    HEAD CHANGE   HEAD CHANGE   HEAD CHANGE   HEAD CHANGE   HEAD CHANGE
  LAYER,ROW,COL LAYER,ROW,COL LAYER,ROW,COL LAYER,ROW,COL LAYER,ROW,COL
 ----------------------------------------------------------------------
     0.2422       -0.8959E-01
  ( 11,223, 58) ( 12,221, 57)


 MAXIMUM HEAD CHANGE IN FWL5 FOR EACH ITERATION:

    HEAD CHANGE   HEAD CHANGE   HEAD CHANGE   HEAD CHANGE   HEAD CHANGE
  WELL,  LAYER  WELL,  LAYER  WELL,  LAYER  WELL,  LAYER  WELL,  LAYER 
 ----------------------------------------------------------------------
      0.000         0.000    
  (   223, 11) (   221, 12)



          TIME SUMMARY AT END OF TIME STEP        32 IN STRESS PERIOD         1
                    SECONDS       MINUTES        HOURS         DAYS          YEARS
                    -------------------------------------------------------------------
   TIME STEP LENGTH  1454502.      24241.70      404.0283      16.83451     4.6090383E-02
 STRESS PERIOD TIME 1.5608209E+07  260136.8      4335.614      180.6506     0.4945943    
         TOTAL TIME 1.5608209E+07  260136.8      4335.614      180.6506     0.4945943    
 OUTER ITERATION NUMBER:     1
 BACKTRACK COUNT=  0 ACCEPTED RESIDUAL=   2567.783    INCOMING RESIDUAL=   2567.783    IBT=  0
 Convergence in           13  iterations
 OUTER ITERATION NUMBER:     2
 BACKTRACK COUNT=  0 ACCEPTED RESIDUAL=   9.781590    INCOMING RESIDUAL=   9.781590    IBT=  0
 Convergence in            8  iterations
     2 ITERATIONS FOR TIME STEP       33 IN STRESS PERIOD       1

 MAXIMUM HEAD CHANGE FOR EACH ITERATION:

    HEAD CHANGE   HEAD CHANGE   HEAD CHANGE   HEAD CHANGE   HEAD CHANGE
  LAYER,ROW,COL LAYER,ROW,COL LAYER,ROW,COL LAYER,ROW,COL LAYER,ROW,COL
 ----------------------------------------------------------------------
     0.3555        0.3019E-01
  ( 12,223, 58) (  2,223, 59)


 MAXIMUM HEAD CHANGE IN FWL5 FOR EACH ITERATION:

    HEAD CHANGE   HEAD CHANGE   HEAD CHANGE   HEAD CHANGE   HEAD CHANGE
  WELL,  LAYER  WELL,  LAYER  WELL,  LAYER  WELL,  LAYER  WELL,  LAYER 
 ----------------------------------------------------------------------
      0.000         0.000    
  (   223, 12) (   223,  2)



          TIME SUMMARY AT END OF TIME STEP        33 IN STRESS PERIOD         1
                    SECONDS       MINUTES        HOURS         DAYS          YEARS
                    -------------------------------------------------------------------
   TIME STEP LENGTH  1599952.      26665.87      444.4312      18.51797     5.0699428E-02
 STRESS PERIOD TIME 1.7208160E+07  286802.7      4780.044      199.1685     0.5452937    
         TOTAL TIME 1.7208160E+07  286802.7      4780.044      199.1685     0.5452937    
 OUTER ITERATION NUMBER:     1
 BACKTRACK COUNT=  0 ACCEPTED RESIDUAL=   3156.342    INCOMING RESIDUAL=   3156.342    IBT=  0
 Convergence in           13  iterations
 OUTER ITERATION NUMBER:     2
 BACKTRACK COUNT=  0 ACCEPTED RESIDUAL=   16.25691    INCOMING RESIDUAL=   16.25691    IBT=  0
 Convergence in            3  iterations
 OUTER ITERATION NUMBER:     3
 BACKTRACK COUNT=  0 ACCEPTED RESIDUAL=   3.678051    INCOMING RESIDUAL=   3.678051    IBT=  0
 Convergence in            6  iterations
     3 ITERATIONS FOR TIME STEP       34 IN STRESS PERIOD       1

 MAXIMUM HEAD CHANGE FOR EACH ITERATION:

    HEAD CHANGE   HEAD CHANGE   HEAD CHANGE   HEAD CHANGE   HEAD CHANGE
  LAYER,ROW,COL LAYER,ROW,COL LAYER,ROW,COL LAYER,ROW,COL LAYER,ROW,COL
 ----------------------------------------------------------------------
     0.4451       -0.1132       -0.2209E-01
  (  1,223, 58) ( 12,227, 67) (  4,227, 67)


 MAXIMUM HEAD CHANGE IN FWL5 FOR EACH ITERATION:

    HEAD CHANGE   HEAD CHANGE   HEAD CHANGE   HEAD CHANGE   HEAD CHANGE
  WELL,  LAYER  WELL,  LAYER  WELL,  LAYER  WELL,  LAYER  WELL,  LAYER 
 ----------------------------------------------------------------------
      0.000         0.000         0.000    
  (   223,  1) (   227, 12) (   227,  4)



          TIME SUMMARY AT END OF TIME STEP        34 IN STRESS PERIOD         1
                    SECONDS       MINUTES        HOURS         DAYS          YEARS
                    -------------------------------------------------------------------
   TIME STEP LENGTH  1759948.      29332.46      488.8743      20.36976     5.5769376E-02
 STRESS PERIOD TIME 1.8968108E+07  316135.1      5268.919      219.5383     0.6010631    
         TOTAL TIME 1.8968108E+07  316135.1      5268.919      219.5383     0.6010631    
 OUTER ITERATION NUMBER:     1
 BACKTRACK COUNT=  0 ACCEPTED RESIDUAL=   3049.402    INCOMING RESIDUAL=   3049.402    IBT=  0
 Convergence in           13  iterations
 OUTER ITERATION NUMBER:     2
 BACKTRACK COUNT=  0 ACCEPTED RESIDUAL=   99.92285    INCOMING RESIDUAL=   99.92285    IBT=  0
 Convergence in            3  iterations
 OUTER ITERATION NUMBER:     3
 BACKTRACK COUNT=  0 ACCEPTED RESIDUAL=   6.477883    INCOMING RESIDUAL=   6.477883    IBT=  0
 Convergence in            9  iterations
     3 ITERATIONS FOR TIME STEP       35 IN STRESS PERIOD       1

 MAXIMUM HEAD CHANGE FOR EACH ITERATION:

    HEAD CHANGE   HEAD CHANGE   HEAD CHANGE   HEAD CHANGE   HEAD CHANGE
  LAYER,ROW,COL LAYER,ROW,COL LAYER,ROW,COL LAYER,ROW,COL LAYER,ROW,COL
 ----------------------------------------------------------------------
     0.4735       -0.1294        0.4251E-01
  ( 12,223, 58) (  3,223, 56) ( 12,250, 68)


 MAXIMUM HEAD CHANGE IN FWL5 FOR EACH ITERATION:

    HEAD CHANGE   HEAD CHANGE   HEAD CHANGE   HEAD CHANGE   HEAD CHANGE
  WELL,  LAYER  WELL,  LAYER  WELL,  LAYER  WELL,  LAYER  WELL,  LAYER 
 ----------------------------------------------------------------------
      0.000         0.000         0.000    
  (   223, 12) (   223,  3) (   250, 12)



          TIME SUMMARY AT END OF TIME STEP        35 IN STRESS PERIOD         1
                    SECONDS       MINUTES        HOURS         DAYS          YEARS
                    -------------------------------------------------------------------
   TIME STEP LENGTH  1935942.      32265.71      537.7618      22.40674     6.1346311E-02
 STRESS PERIOD TIME 2.0904050E+07  348400.8      5806.681      241.9450     0.6624094    
         TOTAL TIME 2.0904050E+07  348400.8      5806.681      241.9450     0.6624094    
 OUTER ITERATION NUMBER:     1
 BACKTRACK COUNT=  0 ACCEPTED RESIDUAL=   2947.063    INCOMING RESIDUAL=   2947.063    IBT=  0
 Convergence in           13  iterations
 OUTER ITERATION NUMBER:     2
 BACKTRACK COUNT=  0 ACCEPTED RESIDUAL=   40.84564    INCOMING RESIDUAL=   40.84564    IBT=  0
 Convergence in            4  iterations
 OUTER ITERATION NUMBER:     3
 BACKTRACK COUNT=  0 ACCEPTED RESIDUAL=   15.81954    INCOMING RESIDUAL=   15.81954    IBT=  0
 Convergence in            3  iterations
 OUTER ITERATION NUMBER:     4
 BACKTRACK COUNT=  0 ACCEPTED RESIDUAL=   2.113660    INCOMING RESIDUAL=   2.113660    IBT=  0
 Convergence in            2  iterations
     4 ITERATIONS FOR TIME STEP       36 IN STRESS PERIOD       1

 MAXIMUM HEAD CHANGE FOR EACH ITERATION:

    HEAD CHANGE   HEAD CHANGE   HEAD CHANGE   HEAD CHANGE   HEAD CHANGE
  LAYER,ROW,COL LAYER,ROW,COL LAYER,ROW,COL LAYER,ROW,COL LAYER,ROW,COL
 ----------------------------------------------------------------------
     0.4368       -0.5870       -0.3688       -0.4622E-01
  ( 12,223, 58) ( 12,220, 58) ( 12,220, 58) ( 12,250, 68)


 MAXIMUM HEAD CHANGE IN FWL5 FOR EACH ITERATION:

    HEAD CHANGE   HEAD CHANGE   HEAD CHANGE   HEAD CHANGE   HEAD CHANGE
  WELL,  LAYER  WELL,  LAYER  WELL,  LAYER  WELL,  LAYER  WELL,  LAYER 
 ----------------------------------------------------------------------
      0.000         0.000         0.000         0.000    
  (   223, 12) (   220, 12) (   220, 12) (   250, 12)



          TIME SUMMARY AT END OF TIME STEP        36 IN STRESS PERIOD         1
                    SECONDS       MINUTES        HOURS         DAYS          YEARS
                    -------------------------------------------------------------------
   TIME STEP LENGTH  2129536.      35492.27      591.5379      24.64741     6.7480937E-02
 STRESS PERIOD TIME 2.3033588E+07  383893.1      6398.219      266.5924     0.7298903    
         TOTAL TIME 2.3033588E+07  383893.1      6398.219      266.5924     0.7298903    
 OUTER ITERATION NUMBER:     1
 BACKTRACK COUNT=  0 ACCEPTED RESIDUAL=   3019.295    INCOMING RESIDUAL=   3019.295    IBT=  0
 Convergence in           13  iterations
 OUTER ITERATION NUMBER:     2
 BACKTRACK COUNT=  0 ACCEPTED RESIDUAL=   7.157660    INCOMING RESIDUAL=   7.157660    IBT=  0
 Convergence in            2  iterations
 OUTER ITERATION NUMBER:     3
 BACKTRACK COUNT=  0 ACCEPTED RESIDUAL=   1.594390    INCOMING RESIDUAL=   1.594390    IBT=  0
 Convergence in           10  iterations
     3 ITERATIONS FOR TIME STEP       37 IN STRESS PERIOD       1

 MAXIMUM HEAD CHANGE FOR EACH ITERATION:

    HEAD CHANGE   HEAD CHANGE   HEAD CHANGE   HEAD CHANGE   HEAD CHANGE
  LAYER,ROW,COL LAYER,ROW,COL LAYER,ROW,COL LAYER,ROW,COL LAYER,ROW,COL
 ----------------------------------------------------------------------
     -1.042        0.1289        0.1978E-01
  ( 12,220, 58) ( 12,220, 58) ( 12,270, 56)


 MAXIMUM HEAD CHANGE IN FWL5 FOR EACH ITERATION:

    HEAD CHANGE   HEAD CHANGE   HEAD CHANGE   HEAD CHANGE   HEAD CHANGE
  WELL,  LAYER  WELL,  LAYER  WELL,  LAYER  WELL,  LAYER  WELL,  LAYER 
 ----------------------------------------------------------------------
      0.000         0.000         0.000    
  (   220, 12) (   220, 12) (   270, 12)



          TIME SUMMARY AT END OF TIME STEP        37 IN STRESS PERIOD         1
                    SECONDS       MINUTES        HOURS         DAYS          YEARS
                    -------------------------------------------------------------------
   TIME STEP LENGTH  2342490.      39041.50      650.6917      27.11215     7.4229032E-02
 STRESS PERIOD TIME 2.5376078E+07  422934.6      7048.911      293.7046     0.8041194    
         TOTAL TIME 2.5376078E+07  422934.6      7048.911      293.7046     0.8041194    
 OUTER ITERATION NUMBER:     1
 BACKTRACK COUNT=  0 ACCEPTED RESIDUAL=   2474.050    INCOMING RESIDUAL=   2474.050    IBT=  0
 Convergence in           15  iterations
 OUTER ITERATION NUMBER:     2
 BACKTRACK COUNT=  0 ACCEPTED RESIDUAL=   5.399333    INCOMING RESIDUAL=   5.399333    IBT=  0
 MAT1S did not converge
 OUTER ITERATION NUMBER:     3
 BACKTRACK COUNT=  0 ACCEPTED RESIDUAL=   1.794513    INCOMING RESIDUAL=   1.794513    IBT=  0
 Convergence in            6  iterations
     3 ITERATIONS FOR TIME STEP       38 IN STRESS PERIOD       1

 MAXIMUM HEAD CHANGE FOR EACH ITERATION:

    HEAD CHANGE   HEAD CHANGE   HEAD CHANGE   HEAD CHANGE   HEAD CHANGE
  LAYER,ROW,COL LAYER,ROW,COL LAYER,ROW,COL LAYER,ROW,COL LAYER,ROW,COL
 ----------------------------------------------------------------------
    -0.6257       -0.5004        0.3303E-01
  ( 12,214, 57) ( 12,214, 57) ( 12,256, 75)


 MAXIMUM HEAD CHANGE IN FWL5 FOR EACH ITERATION:

    HEAD CHANGE   HEAD CHANGE   HEAD CHANGE   HEAD CHANGE   HEAD CHANGE
  WELL,  LAYER  WELL,  LAYER  WELL,  LAYER  WELL,  LAYER  WELL,  LAYER 
 ----------------------------------------------------------------------
      0.000         0.000         0.000    
  (   214, 12) (   214, 12) (   256, 12)



          TIME SUMMARY AT END OF TIME STEP        38 IN STRESS PERIOD         1
                    SECONDS       MINUTES        HOURS         DAYS          YEARS
                    -------------------------------------------------------------------
   TIME STEP LENGTH  2576740.      42945.66      715.7610      29.82337     8.1651948E-02
 STRESS PERIOD TIME 2.7952818E+07  465880.3      7764.672      323.5280     0.8857713    
         TOTAL TIME 2.7952818E+07  465880.3      7764.672      323.5280     0.8857713    
 OUTER ITERATION NUMBER:     1
 BACKTRACK COUNT=  0 ACCEPTED RESIDUAL=   2203.769    INCOMING RESIDUAL=   2203.769    IBT=  0
 MAT1S did not converge
 OUTER ITERATION NUMBER:     2
 BACKTRACK COUNT=  0 ACCEPTED RESIDUAL=   3.530775    INCOMING RESIDUAL=   3.530775    IBT=  0
 Convergence in            7  iterations
 OUTER ITERATION NUMBER:     3
 BACKTRACK COUNT=  0 ACCEPTED RESIDUAL=   1.269091    INCOMING RESIDUAL=   1.269091    IBT=  0
 Convergence in            6  iterations
     3 ITERATIONS FOR TIME STEP       39 IN STRESS PERIOD       1

 MAXIMUM HEAD CHANGE FOR EACH ITERATION:

    HEAD CHANGE   HEAD CHANGE   HEAD CHANGE   HEAD CHANGE   HEAD CHANGE
  LAYER,ROW,COL LAYER,ROW,COL LAYER,ROW,COL LAYER,ROW,COL LAYER,ROW,COL
 ----------------------------------------------------------------------
     -1.884        0.2635        0.3374E-01
  ( 12,214, 57) ( 12,214, 57) ( 12,270, 56)


 MAXIMUM HEAD CHANGE IN FWL5 FOR EACH ITERATION:

    HEAD CHANGE   HEAD CHANGE   HEAD CHANGE   HEAD CHANGE   HEAD CHANGE
  WELL,  LAYER  WELL,  LAYER  WELL,  LAYER  WELL,  LAYER  WELL,  LAYER 
 ----------------------------------------------------------------------
      0.000         0.000         0.000    
  (   214, 12) (   214, 12) (   270, 12)



          TIME SUMMARY AT END OF TIME STEP        39 IN STRESS PERIOD         1
                    SECONDS       MINUTES        HOURS         DAYS          YEARS
                    -------------------------------------------------------------------
   TIME STEP LENGTH  2834414.      47240.23      787.3371      32.80571     8.9817151E-02
 STRESS PERIOD TIME 3.0787230E+07  513120.5      8552.009      356.3337     0.9755885    
         TOTAL TIME 3.0787230E+07  513120.5      8552.009      356.3337     0.9755885    
 OUTER ITERATION NUMBER:     1
 BACKTRACK COUNT=  0 ACCEPTED RESIDUAL=   2132.247    INCOMING RESIDUAL=   2132.247    IBT=  0
 MAT1S did not converge
 OUTER ITERATION NUMBER:     2
 BACKTRACK COUNT=  0 ACCEPTED RESIDUAL=   2.542511    INCOMING RESIDUAL=   2.542511    IBT=  0
 MAT1S did not converge
 OUTER ITERATION NUMBER:     3
 BACKTRACK COUNT=  0 ACCEPTED RESIDUAL=  0.8940680    INCOMING RESIDUAL=  0.8940680    IBT=  0
 Convergence in            2  iterations
     3 ITERATIONS FOR TIME STEP       40 IN STRESS PERIOD       1

 MAXIMUM HEAD CHANGE FOR EACH ITERATION:

    HEAD CHANGE   HEAD CHANGE   HEAD CHANGE   HEAD CHANGE   HEAD CHANGE
  LAYER,ROW,COL LAYER,ROW,COL LAYER,ROW,COL LAYER,ROW,COL LAYER,ROW,COL
 ----------------------------------------------------------------------
     -1.810        0.2443        0.3245E-01
  ( 12,214, 57) ( 12,214, 57) ( 12,270, 56)


 MAXIMUM HEAD CHANGE IN FWL5 FOR EACH ITERATION:

    HEAD CHANGE   HEAD CHANGE   HEAD CHANGE   HEAD CHANGE   HEAD CHANGE
  WELL,  LAYER  WELL,  LAYER  WELL,  LAYER  WELL,  LAYER  WELL,  LAYER 
 ----------------------------------------------------------------------
      0.000         0.000         0.000    
  (   214, 12) (   214, 12) (   270, 12)



          TIME SUMMARY AT END OF TIME STEP        40 IN STRESS PERIOD         1
                    SECONDS       MINUTES        HOURS         DAYS          YEARS
                    -------------------------------------------------------------------
   TIME STEP LENGTH  3117855.      51964.25      866.0707      36.08628     9.8798849E-02
 STRESS PERIOD TIME 3.3905084E+07  565084.8      9418.079      392.4200      1.074387    
         TOTAL TIME 3.3905084E+07  565084.8      9418.079      392.4200      1.074387    
 OUTER ITERATION NUMBER:     1
 BACKTRACK COUNT=  0 ACCEPTED RESIDUAL=   2527.139    INCOMING RESIDUAL=   2527.139    IBT=  0
 MAT1S did not converge
 OUTER ITERATION NUMBER:     2
 BACKTRACK COUNT=  0 ACCEPTED RESIDUAL=   13.30138    INCOMING RESIDUAL=   13.30138    IBT=  0
 Convergence in           12  iterations
 OUTER ITERATION NUMBER:     3
 BACKTRACK COUNT=  0 ACCEPTED RESIDUAL=   1.050008    INCOMING RESIDUAL=   1.050008    IBT=  0
 Convergence in            2  iterations
     3 ITERATIONS FOR TIME STEP       41 IN STRESS PERIOD       1

 MAXIMUM HEAD CHANGE FOR EACH ITERATION:

    HEAD CHANGE   HEAD CHANGE   HEAD CHANGE   HEAD CHANGE   HEAD CHANGE
  LAYER,ROW,COL LAYER,ROW,COL LAYER,ROW,COL LAYER,ROW,COL LAYER,ROW,COL
 ----------------------------------------------------------------------
     -1.473        0.1970       -0.2231E-01
  (  1,214, 57) ( 12,214, 57) ( 12,250, 68)


 MAXIMUM HEAD CHANGE IN FWL5 FOR EACH ITERATION:

    HEAD CHANGE   HEAD CHANGE   HEAD CHANGE   HEAD CHANGE   HEAD CHANGE
  WELL,  LAYER  WELL,  LAYER  WELL,  LAYER  WELL,  LAYER  WELL,  LAYER 
 ----------------------------------------------------------------------
      0.000         0.000         0.000    
  (   214,  1) (   214, 12) (   250, 12)



          TIME SUMMARY AT END OF TIME STEP        41 IN STRESS PERIOD         1
                    SECONDS       MINUTES        HOURS         DAYS          YEARS
                    -------------------------------------------------------------------
   TIME STEP LENGTH  3429640.      57160.67      952.6779      39.69491     0.1086787    
 STRESS PERIOD TIME 3.7334724E+07  622245.4      10370.76      432.1148      1.183066    
         TOTAL TIME 3.7334724E+07  622245.4      10370.76      432.1148      1.183066    
 OUTER ITERATION NUMBER:     1
 BACKTRACK COUNT=  0 ACCEPTED RESIDUAL=   1627.002    INCOMING RESIDUAL=   1627.002    IBT=  0
 MAT1S did not converge
 OUTER ITERATION NUMBER:     2
 BACKTRACK COUNT=  0 ACCEPTED RESIDUAL=   136.8868    INCOMING RESIDUAL=   136.8868    IBT=  0
 Convergence in           12  iterations
 OUTER ITERATION NUMBER:     3
 BACKTRACK COUNT=  0 ACCEPTED RESIDUAL=  0.9931491    INCOMING RESIDUAL=  0.9931491    IBT=  0
 Convergence in            2  iterations
     3 ITERATIONS FOR TIME STEP       42 IN STRESS PERIOD       1

 MAXIMUM HEAD CHANGE FOR EACH ITERATION:

    HEAD CHANGE   HEAD CHANGE   HEAD CHANGE   HEAD CHANGE   HEAD CHANGE
  LAYER,ROW,COL LAYER,ROW,COL LAYER,ROW,COL LAYER,ROW,COL LAYER,ROW,COL
 ----------------------------------------------------------------------
     -1.130       -0.2310       -0.3403E-01
  (  1,214, 57) ( 12,230, 64) ( 12,270, 56)


 MAXIMUM HEAD CHANGE IN FWL5 FOR EACH ITERATION:

    HEAD CHANGE   HEAD CHANGE   HEAD CHANGE   HEAD CHANGE   HEAD CHANGE
  WELL,  LAYER  WELL,  LAYER  WELL,  LAYER  WELL,  LAYER  WELL,  LAYER 
 ----------------------------------------------------------------------
      0.000         0.000         0.000    
  (   214,  1) (   230, 12) (   270, 12)



          TIME SUMMARY AT END OF TIME STEP        42 IN STRESS PERIOD         1
                    SECONDS       MINUTES        HOURS         DAYS          YEARS
                    -------------------------------------------------------------------
   TIME STEP LENGTH  3772604.      62876.74      1047.946      43.66440     0.1195466    
 STRESS PERIOD TIME 4.1107332E+07  685122.2      11418.70      475.7793      1.302613    
         TOTAL TIME 4.1107332E+07  685122.2      11418.70      475.7793      1.302613    
 OUTER ITERATION NUMBER:     1
 BACKTRACK COUNT=  0 ACCEPTED RESIDUAL=   1722.507    INCOMING RESIDUAL=   1722.507    IBT=  0
 MAT1S did not converge
 OUTER ITERATION NUMBER:     2
 BACKTRACK COUNT=  0 ACCEPTED RESIDUAL=   2.501766    INCOMING RESIDUAL=   2.501766    IBT=  0
 Convergence in           12  iterations
 OUTER ITERATION NUMBER:     3
 BACKTRACK COUNT=  0 ACCEPTED RESIDUAL=  0.2928524    INCOMING RESIDUAL=  0.2928524    IBT=  0
 Convergence in            3  iterations
     3 ITERATIONS FOR TIME STEP       43 IN STRESS PERIOD       1

 MAXIMUM HEAD CHANGE FOR EACH ITERATION:

    HEAD CHANGE   HEAD CHANGE   HEAD CHANGE   HEAD CHANGE   HEAD CHANGE
  LAYER,ROW,COL LAYER,ROW,COL LAYER,ROW,COL LAYER,ROW,COL LAYER,ROW,COL
 ----------------------------------------------------------------------
     -1.274        0.2237        0.3096E-01
  ( 12,230, 64) ( 12,230, 64) ( 12,230, 64)


 MAXIMUM HEAD CHANGE IN FWL5 FOR EACH ITERATION:

    HEAD CHANGE   HEAD CHANGE   HEAD CHANGE   HEAD CHANGE   HEAD CHANGE
  WELL,  LAYER  WELL,  LAYER  WELL,  LAYER  WELL,  LAYER  WELL,  LAYER 
 ----------------------------------------------------------------------
      0.000         0.000         0.000    
  (   230, 12) (   230, 12) (   230, 12)



          TIME SUMMARY AT END OF TIME STEP        43 IN STRESS PERIOD         1
                    SECONDS       MINUTES        HOURS         DAYS          YEARS
                    -------------------------------------------------------------------
   TIME STEP LENGTH  4149865.      69164.41      1152.740      48.03084     0.1315013    
 STRESS PERIOD TIME 4.5257196E+07  754286.6      12571.44      523.8101      1.434114    
         TOTAL TIME 4.5257196E+07  754286.6      12571.44      523.8101      1.434114    
 OUTER ITERATION NUMBER:     1
 BACKTRACK COUNT=  0 ACCEPTED RESIDUAL=   1971.955    INCOMING RESIDUAL=   1971.955    IBT=  0
 MAT1S did not converge
 OUTER ITERATION NUMBER:     2
 BACKTRACK COUNT=  0 ACCEPTED RESIDUAL=   10.32556    INCOMING RESIDUAL=   10.32556    IBT=  0
 Convergence in           13  iterations
 OUTER ITERATION NUMBER:     3
 BACKTRACK COUNT=  0 ACCEPTED RESIDUAL=  0.3859607    INCOMING RESIDUAL=  0.3859607    IBT=  0
 Convergence in            3  iterations
     3 ITERATIONS FOR TIME STEP       44 IN STRESS PERIOD       1

 MAXIMUM HEAD CHANGE FOR EACH ITERATION:

    HEAD CHANGE   HEAD CHANGE   HEAD CHANGE   HEAD CHANGE   HEAD CHANGE
  LAYER,ROW,COL LAYER,ROW,COL LAYER,ROW,COL LAYER,ROW,COL LAYER,ROW,COL
 ----------------------------------------------------------------------
     -1.870        0.3239        0.4513E-01
  ( 12,230, 64) ( 12,230, 64) (  2,230, 64)


 MAXIMUM HEAD CHANGE IN FWL5 FOR EACH ITERATION:

    HEAD CHANGE   HEAD CHANGE   HEAD CHANGE   HEAD CHANGE   HEAD CHANGE
  WELL,  LAYER  WELL,  LAYER  WELL,  LAYER  WELL,  LAYER  WELL,  LAYER 
 ----------------------------------------------------------------------
      0.000         0.000         0.000    
  (   230, 12) (   230, 12) (   230,  2)



          TIME SUMMARY AT END OF TIME STEP        44 IN STRESS PERIOD         1
                    SECONDS       MINUTES        HOURS         DAYS          YEARS
                    -------------------------------------------------------------------
   TIME STEP LENGTH  4564852.      76080.86      1268.014      52.83393     0.1446514    
 STRESS PERIOD TIME 4.9822048E+07  830367.4      13839.46      576.6440      1.578765    
         TOTAL TIME 4.9822048E+07  830367.4      13839.46      576.6440      1.578765    
 OUTER ITERATION NUMBER:     1
 BACKTRACK COUNT=  0 ACCEPTED RESIDUAL=   1851.763    INCOMING RESIDUAL=   1851.763    IBT=  0
 MAT1S did not converge
 OUTER ITERATION NUMBER:     2
 BACKTRACK COUNT=  0 ACCEPTED RESIDUAL=   23.55931    INCOMING RESIDUAL=   23.55931    IBT=  0
 MAT1S did not converge
 OUTER ITERATION NUMBER:     3
 BACKTRACK COUNT=  0 ACCEPTED RESIDUAL=  0.8092665    INCOMING RESIDUAL=  0.8092665    IBT=  0
 Convergence in            5  iterations
     3 ITERATIONS FOR TIME STEP       45 IN STRESS PERIOD       1

 MAXIMUM HEAD CHANGE FOR EACH ITERATION:

    HEAD CHANGE   HEAD CHANGE   HEAD CHANGE   HEAD CHANGE   HEAD CHANGE
  LAYER,ROW,COL LAYER,ROW,COL LAYER,ROW,COL LAYER,ROW,COL LAYER,ROW,COL
 ----------------------------------------------------------------------
     -2.413        0.4048        0.6143E-01
  ( 12,229, 63) ( 12,230, 64) (  2,230, 64)


 MAXIMUM HEAD CHANGE IN FWL5 FOR EACH ITERATION:

    HEAD CHANGE   HEAD CHANGE   HEAD CHANGE   HEAD CHANGE   HEAD CHANGE
  WELL,  LAYER  WELL,  LAYER  WELL,  LAYER  WELL,  LAYER  WELL,  LAYER 
 ----------------------------------------------------------------------
      0.000         0.000         0.000    
  (   229, 12) (   230, 12) (   230,  2)



          TIME SUMMARY AT END OF TIME STEP        45 IN STRESS PERIOD         1
                    SECONDS       MINUTES        HOURS         DAYS          YEARS
                    -------------------------------------------------------------------
   TIME STEP LENGTH  5021337.      83688.95      1394.816      58.11733     0.1591166    
 STRESS PERIOD TIME 5.4843384E+07  914056.4      15234.27      634.7614      1.737882    
         TOTAL TIME 5.4843384E+07  914056.4      15234.27      634.7614      1.737882    
 OUTER ITERATION NUMBER:     1
 BACKTRACK COUNT=  0 ACCEPTED RESIDUAL=   1949.947    INCOMING RESIDUAL=   1949.947    IBT=  0
 MAT1S did not converge
 OUTER ITERATION NUMBER:     2
 BACKTRACK COUNT=  0 ACCEPTED RESIDUAL=   8.660811    INCOMING RESIDUAL=   8.660811    IBT=  0
 MAT1S did not converge
 OUTER ITERATION NUMBER:     3
 BACKTRACK COUNT=  0 ACCEPTED RESIDUAL=  0.3604244    INCOMING RESIDUAL=  0.3604244    IBT=  0
 Convergence in            2  iterations
     3 ITERATIONS FOR TIME STEP       46 IN STRESS PERIOD       1

 MAXIMUM HEAD CHANGE FOR EACH ITERATION:

    HEAD CHANGE   HEAD CHANGE   HEAD CHANGE   HEAD CHANGE   HEAD CHANGE
  LAYER,ROW,COL LAYER,ROW,COL LAYER,ROW,COL LAYER,ROW,COL LAYER,ROW,COL
 ----------------------------------------------------------------------
     -1.492        0.2032       -0.3460E-01
  (  1,230, 64) ( 12,221, 60) ( 12,256, 75)


 MAXIMUM HEAD CHANGE IN FWL5 FOR EACH ITERATION:

    HEAD CHANGE   HEAD CHANGE   HEAD CHANGE   HEAD CHANGE   HEAD CHANGE
  WELL,  LAYER  WELL,  LAYER  WELL,  LAYER  WELL,  LAYER  WELL,  LAYER 
 ----------------------------------------------------------------------
      0.000         0.000         0.000    
  (   230,  1) (   221, 12) (   256, 12)



          TIME SUMMARY AT END OF TIME STEP        46 IN STRESS PERIOD         1
                    SECONDS       MINUTES        HOURS         DAYS          YEARS
                    -------------------------------------------------------------------
   TIME STEP LENGTH  5523470.      92057.84      1534.297      63.92906     0.1750282    
 STRESS PERIOD TIME 6.0366856E+07  1006114.      16768.57      698.6904      1.912910    
         TOTAL TIME 6.0366856E+07  1006114.      16768.57      698.6904      1.912910    
 OUTER ITERATION NUMBER:     1
 BACKTRACK COUNT=  0 ACCEPTED RESIDUAL=   1974.902    INCOMING RESIDUAL=   1974.902    IBT=  0
 MAT1S did not converge
 OUTER ITERATION NUMBER:     2
 BACKTRACK COUNT=  0 ACCEPTED RESIDUAL=   4.120406    INCOMING RESIDUAL=   4.120406    IBT=  0
 Convergence in            3  iterations
 OUTER ITERATION NUMBER:     3
 BACKTRACK COUNT=  0 ACCEPTED RESIDUAL=  0.3078747    INCOMING RESIDUAL=  0.3078747    IBT=  0
 Convergence in            4  iterations
     3 ITERATIONS FOR TIME STEP       47 IN STRESS PERIOD       1

 MAXIMUM HEAD CHANGE FOR EACH ITERATION:

    HEAD CHANGE   HEAD CHANGE   HEAD CHANGE   HEAD CHANGE   HEAD CHANGE
  LAYER,ROW,COL LAYER,ROW,COL LAYER,ROW,COL LAYER,ROW,COL LAYER,ROW,COL
 ----------------------------------------------------------------------
     -1.349       -0.6259       -0.1843E-01
  (  1,229, 63) ( 12,221, 63) ( 12,231, 63)


 MAXIMUM HEAD CHANGE IN FWL5 FOR EACH ITERATION:

    HEAD CHANGE   HEAD CHANGE   HEAD CHANGE   HEAD CHANGE   HEAD CHANGE
  WELL,  LAYER  WELL,  LAYER  WELL,  LAYER  WELL,  LAYER  WELL,  LAYER 
 ----------------------------------------------------------------------
      0.000         0.000         0.000    
  (   229,  1) (   221, 12) (   231, 12)



          TIME SUMMARY AT END OF TIME STEP        47 IN STRESS PERIOD         1
                    SECONDS       MINUTES        HOURS         DAYS          YEARS
                    -------------------------------------------------------------------
   TIME STEP LENGTH  6075818.      101263.6      1687.727      70.32197     0.1925310    
 STRESS PERIOD TIME 6.6442672E+07  1107378.      18456.30      769.0125      2.105441    
         TOTAL TIME 6.6442672E+07  1107378.      18456.30      769.0125      2.105441    
 OUTER ITERATION NUMBER:     1
 BACKTRACK COUNT=  0 ACCEPTED RESIDUAL=   1892.693    INCOMING RESIDUAL=   1892.693    IBT=  0
 MAT1S did not converge
 OUTER ITERATION NUMBER:     2
 BACKTRACK COUNT=  0 ACCEPTED RESIDUAL=  0.8004315    INCOMING RESIDUAL=  0.8004315    IBT=  0
 Convergence in            3  iterations
 OUTER ITERATION NUMBER:     3
 BACKTRACK COUNT=  0 ACCEPTED RESIDUAL=  0.1676400    INCOMING RESIDUAL=  0.1676400    IBT=  0
 Convergence in            3  iterations
     3 ITERATIONS FOR TIME STEP       48 IN STRESS PERIOD       1

 MAXIMUM HEAD CHANGE FOR EACH ITERATION:

    HEAD CHANGE   HEAD CHANGE   HEAD CHANGE   HEAD CHANGE   HEAD CHANGE
  LAYER,ROW,COL LAYER,ROW,COL LAYER,ROW,COL LAYER,ROW,COL LAYER,ROW,COL
 ----------------------------------------------------------------------
    -0.8318        0.2178        0.2741E-01
  (  1,229, 63) ( 12,231, 63) ( 12,231, 63)


 MAXIMUM HEAD CHANGE IN FWL5 FOR EACH ITERATION:

    HEAD CHANGE   HEAD CHANGE   HEAD CHANGE   HEAD CHANGE   HEAD CHANGE
  WELL,  LAYER  WELL,  LAYER  WELL,  LAYER  WELL,  LAYER  WELL,  LAYER 
 ----------------------------------------------------------------------
      0.000         0.000         0.000    
  (   229,  1) (   231, 12) (   231, 12)



          TIME SUMMARY AT END OF TIME STEP        48 IN STRESS PERIOD         1
                    SECONDS       MINUTES        HOURS         DAYS          YEARS
                    -------------------------------------------------------------------
   TIME STEP LENGTH  6683400.      111390.0      1856.500      77.35416     0.2117842    
 STRESS PERIOD TIME 7.3126072E+07  1218768.      20312.80      846.3666      2.317225    
         TOTAL TIME 7.3126072E+07  1218768.      20312.80      846.3666      2.317225    
 OUTER ITERATION NUMBER:     1
 BACKTRACK COUNT=  0 ACCEPTED RESIDUAL=   1233.533    INCOMING RESIDUAL=   1233.533    IBT=  0
 MAT1S did not converge
 OUTER ITERATION NUMBER:     2
 BACKTRACK COUNT=  0 ACCEPTED RESIDUAL=  0.8789675    INCOMING RESIDUAL=  0.8789675    IBT=  0
 Convergence in            3  iterations
     2 ITERATIONS FOR TIME STEP       49 IN STRESS PERIOD       1

 MAXIMUM HEAD CHANGE FOR EACH ITERATION:

    HEAD CHANGE   HEAD CHANGE   HEAD CHANGE   HEAD CHANGE   HEAD CHANGE
  LAYER,ROW,COL LAYER,ROW,COL LAYER,ROW,COL LAYER,ROW,COL LAYER,ROW,COL
 ----------------------------------------------------------------------
    -0.4577        0.9532E-01
  ( 12,221, 63) ( 12,231, 63)


 MAXIMUM HEAD CHANGE IN FWL5 FOR EACH ITERATION:

    HEAD CHANGE   HEAD CHANGE   HEAD CHANGE   HEAD CHANGE   HEAD CHANGE
  WELL,  LAYER  WELL,  LAYER  WELL,  LAYER  WELL,  LAYER  WELL,  LAYER 
 ----------------------------------------------------------------------
      0.000         0.000    
  (   221, 12) (   231, 12)



          TIME SUMMARY AT END OF TIME STEP        49 IN STRESS PERIOD         1
                    SECONDS       MINUTES        HOURS         DAYS          YEARS
                    -------------------------------------------------------------------
   TIME STEP LENGTH  7351740.      122529.0      2042.150      85.08958     0.2329626    
 STRESS PERIOD TIME 8.0477808E+07  1341297.      22354.95      931.4561      2.550188    
         TOTAL TIME 8.0477808E+07  1341297.      22354.95      931.4561      2.550188    
 OUTER ITERATION NUMBER:     1
 BACKTRACK COUNT=  0 ACCEPTED RESIDUAL=   1292.139    INCOMING RESIDUAL=   1292.139    IBT=  0
 Convergence in           13  iterations
 OUTER ITERATION NUMBER:     2
 BACKTRACK COUNT=  0 ACCEPTED RESIDUAL=   3.307218    INCOMING RESIDUAL=   3.307218    IBT=  0
 Convergence in            3  iterations
 OUTER ITERATION NUMBER:     3
 BACKTRACK COUNT=  0 ACCEPTED RESIDUAL=  0.4658282    INCOMING RESIDUAL=  0.4658282    IBT=  0
 Convergence in            3  iterations
     3 ITERATIONS FOR TIME STEP       50 IN STRESS PERIOD       1

 MAXIMUM HEAD CHANGE FOR EACH ITERATION:

    HEAD CHANGE   HEAD CHANGE   HEAD CHANGE   HEAD CHANGE   HEAD CHANGE
  LAYER,ROW,COL LAYER,ROW,COL LAYER,ROW,COL LAYER,ROW,COL LAYER,ROW,COL
 ----------------------------------------------------------------------
     0.2589       -0.1450       -0.4691E-01
  (  1,231, 63) (  2,220, 62) (  2,220, 62)


 MAXIMUM HEAD CHANGE IN FWL5 FOR EACH ITERATION:

    HEAD CHANGE   HEAD CHANGE   HEAD CHANGE   HEAD CHANGE   HEAD CHANGE
  WELL,  LAYER  WELL,  LAYER  WELL,  LAYER  WELL,  LAYER  WELL,  LAYER 
 ----------------------------------------------------------------------
      0.000         0.000         0.000    
  (   231,  1) (   220,  2) (   220,  2)
 UBUDSV SAVING "         STORAGE" ON UNIT    50 AT TIME STEP    50, STRESS PERIOD     1
 UBUDSV SAVING "   CONSTANT HEAD" ON UNIT    50 AT TIME STEP    50, STRESS PERIOD     1
 UBUDSV SAVING "FLOW RIGHT FACE " ON UNIT    50 AT TIME STEP    50, STRESS PERIOD     1
 UBUDSV SAVING "FLOW FRONT FACE " ON UNIT    50 AT TIME STEP    50, STRESS PERIOD     1
 UBUDSV SAVING "FLOW LOWER FACE " ON UNIT    50 AT TIME STEP    50, STRESS PERIOD     1
 UBUDSV SAVING "     WL5 STORAGE" ON UNIT   155 AT TIME STEP    50, STRESS PERIOD     1
 UBUDSV SAVING "        WL5 FLOW" ON UNIT   155 AT TIME STEP    50, STRESS PERIOD     1
 UBUDSV SAVING "FLOW WL5 BOT FCE" ON UNIT   155 AT TIME STEP    50, STRESS PERIOD     1
 UBUDSV SAVING "WL5 CELL TO WELL" ON UNIT   155 AT TIME STEP    50, STRESS PERIOD     1
 UBUDSV SAVING "           WELLS" ON UNIT    50 AT TIME STEP    50, STRESS PERIOD     1
 UBUDSV SAVING "          DRAINS" ON UNIT    50 AT TIME STEP    50, STRESS PERIOD     1
 UBUDSV SAVING "        RECHARGE" ON UNIT    50 AT TIME STEP    50, STRESS PERIOD     1

 HEAD WILL BE SAVED ON UNIT  30 AT END OF TIME STEP        50, STRESS PERIOD       1

 DRAWDOWN WILL BE SAVED ON UNIT  31 AT END OF TIME STEP        50, STRESS PERIOD       1
1
  VOLUMETRIC BUDGET FOR ENTIRE MODEL AT END OF TIME STEP      50 IN STRESS PERIOD       1
  -----------------------------------------------------------------------------

     CUMULATIVE VOLUMES      L**3       RATES FOR THIS TIME STEP      L**3/T
     ------------------                 ------------------------

           IN:                                      IN:
           ---                                      ---
             STORAGE =      489983.1562               STORAGE =         116.0863
       CONSTANT HEAD =           0.0000         CONSTANT HEAD =           0.0000
         WL5 STORAGE =           0.0000           WL5 STORAGE =           0.0000
            WL5 FLOW =           0.0000              WL5 FLOW =           0.0000
               WELLS =      339317.0312                 WELLS =         339.3170
              DRAINS =           0.0000                DRAINS =           0.0000
            RECHARGE =    97002320.0000              RECHARGE =       97002.3125

            TOTAL IN =    97831620.1875              TOTAL IN =       97457.7159

          OUT:                                     OUT:
          ----                                     ----
             STORAGE =      787426.3750               STORAGE =         407.4206
       CONSTANT HEAD =           0.0000         CONSTANT HEAD =           0.0000
         WL5 STORAGE =           0.0000           WL5 STORAGE =           0.0000
            WL5 FLOW =           0.0000              WL5 FLOW =           0.0000
               WELLS =       94000.0000                 WELLS =          94.0000
              DRAINS =    96934880.0000                DRAINS =       96887.8672
            RECHARGE =           0.0000              RECHARGE =           0.0000

           TOTAL OUT =    97816306.3750             TOTAL OUT =       97389.2878

            IN - OUT =       15313.8125              IN - OUT =          68.4281

 PERCENT DISCREPANCY =           0.02     PERCENT DISCREPANCY =           0.07






          TIME SUMMARY AT END OF TIME STEP        50 IN STRESS PERIOD         1
                    SECONDS       MINUTES        HOURS         DAYS          YEARS
                    -------------------------------------------------------------------
   TIME STEP LENGTH  5922188.      98703.13      1645.052      68.54385     0.1876628    
 STRESS PERIOD TIME 8.6400000E+07  1440000.      24000.00      1000.000      2.737851    
         TOTAL TIME 8.6400000E+07  1440000.      24000.00      1000.000      2.737851    
1
 OUTER ITERATION NUMBER:     1
 BACKTRACK COUNT=  0 ACCEPTED RESIDUAL=   1476.219    INCOMING RESIDUAL=   1476.219    IBT=  0
 Convergence in           13  iterations
 OUTER ITERATION NUMBER:     2
 BACKTRACK COUNT=  0 ACCEPTED RESIDUAL=   1.200669    INCOMING RESIDUAL=   1.200669    IBT=  0
 Convergence in            3  iterations
     2 ITERATIONS FOR TIME STEP       51 IN STRESS PERIOD       1

 MAXIMUM HEAD CHANGE FOR EACH ITERATION:

    HEAD CHANGE   HEAD CHANGE   HEAD CHANGE   HEAD CHANGE   HEAD CHANGE
  LAYER,ROW,COL LAYER,ROW,COL LAYER,ROW,COL LAYER,ROW,COL LAYER,ROW,COL
 ----------------------------------------------------------------------
    -0.1565        0.8449E-01
  ( 12,218, 57) (  1,219, 58)


 MAXIMUM HEAD CHANGE IN FWL5 FOR EACH ITERATION:

    HEAD CHANGE   HEAD CHANGE   HEAD CHANGE   HEAD CHANGE   HEAD CHANGE
  WELL,  LAYER  WELL,  LAYER  WELL,  LAYER  WELL,  LAYER  WELL,  LAYER 
 ----------------------------------------------------------------------
      0.000         0.000    
  (   218, 12) (   219,  1)



          TIME SUMMARY AT END OF TIME STEP        51 IN STRESS PERIOD         1
                    SECONDS       MINUTES        HOURS         DAYS          YEARS
                    -------------------------------------------------------------------
   TIME STEP LENGTH  6514407.      108573.5      1809.557      75.39823     0.2064291    
 STRESS PERIOD TIME 9.2914408E+07  1548574.      25809.56      1075.398      2.944280    
         TOTAL TIME 9.2914408E+07  1548574.      25809.56      1075.398      2.944280    
 OUTER ITERATION NUMBER:     1
 BACKTRACK COUNT=  0 ACCEPTED RESIDUAL=   1736.817    INCOMING RESIDUAL=   1736.817    IBT=  0
 Convergence in           13  iterations
 OUTER ITERATION NUMBER:     2
 BACKTRACK COUNT=  0 ACCEPTED RESIDUAL=   13.27820    INCOMING RESIDUAL=   13.27820    IBT=  0
 Convergence in           10  iterations
 OUTER ITERATION NUMBER:     3
 BACKTRACK COUNT=  0 ACCEPTED RESIDUAL=   10.11294    INCOMING RESIDUAL=   10.11294    IBT=  0
 Convergence in           12  iterations
 OUTER ITERATION NUMBER:     4
 BACKTRACK COUNT=  0 ACCEPTED RESIDUAL=   38.35911    INCOMING RESIDUAL=   38.35911    IBT= -1
 Convergence in            5  iterations
 OUTER ITERATION NUMBER:     5
 BACKTRACK COUNT=  0 ACCEPTED RESIDUAL=   12.08465    INCOMING RESIDUAL=   12.08465    IBT=  0
 Convergence in            3  iterations
 OUTER ITERATION NUMBER:     6
 BACKTRACK COUNT=  0 ACCEPTED RESIDUAL=   13.29077    INCOMING RESIDUAL=   13.29077    IBT= -1
 Convergence in            7  iterations
 OUTER ITERATION NUMBER:     7
 BACKTRACK COUNT=  0 ACCEPTED RESIDUAL=   7.369795    INCOMING RESIDUAL=   7.369795    IBT=  0
 Convergence in            7  iterations
 OUTER ITERATION NUMBER:     8
 BACKTRACK COUNT=  0 ACCEPTED RESIDUAL=   30.44247    INCOMING RESIDUAL=   30.44247    IBT= -1
 Convergence in            3  iterations
 OUTER ITERATION NUMBER:     9
 BACKTRACK COUNT=  0 ACCEPTED RESIDUAL=   13.13553    INCOMING RESIDUAL=   13.13553    IBT=  0
 Convergence in            3  iterations
 OUTER ITERATION NUMBER:    10
 BACKTRACK COUNT=  0 ACCEPTED RESIDUAL=   13.28137    INCOMING RESIDUAL=   13.28137    IBT= -1
 Convergence in            6  iterations
 OUTER ITERATION NUMBER:    11
 BACKTRACK COUNT=  0 ACCEPTED RESIDUAL=   7.265938    INCOMING RESIDUAL=   7.265938    IBT=  0
 Convergence in            5  iterations
 OUTER ITERATION NUMBER:    12
 BACKTRACK COUNT=  0 ACCEPTED RESIDUAL=   30.31688    INCOMING RESIDUAL=   30.31688    IBT= -1
 Convergence in            3  iterations
 OUTER ITERATION NUMBER:    13
 BACKTRACK COUNT=  0 ACCEPTED RESIDUAL=   13.26381    INCOMING RESIDUAL=   13.26381    IBT=  0
 Convergence in            3  iterations
 OUTER ITERATION NUMBER:    14
 BACKTRACK COUNT=  0 ACCEPTED RESIDUAL=   13.21520    INCOMING RESIDUAL=   13.21520    IBT=  0
 Convergence in            4  iterations
 OUTER ITERATION NUMBER:    15
 BACKTRACK COUNT=  0 ACCEPTED RESIDUAL=   7.196998    INCOMING RESIDUAL=   7.196998    IBT=  0
 Convergence in            4  iterations
 OUTER ITERATION NUMBER:    16
 BACKTRACK COUNT=  0 ACCEPTED RESIDUAL=   30.26657    INCOMING RESIDUAL=   30.26657    IBT= -1
 Convergence in            3  iterations
 OUTER ITERATION NUMBER:    17
 BACKTRACK COUNT=  0 ACCEPTED RESIDUAL=   13.26045    INCOMING RESIDUAL=   13.26045    IBT=  0
 Convergence in            3  iterations
 OUTER ITERATION NUMBER:    18
 BACKTRACK COUNT=  0 ACCEPTED RESIDUAL=   13.21249    INCOMING RESIDUAL=   13.21249    IBT=  0
 Convergence in            4  iterations
 OUTER ITERATION NUMBER:    19
 BACKTRACK COUNT=  0 ACCEPTED RESIDUAL=   7.185251    INCOMING RESIDUAL=   7.185251    IBT=  0
 Convergence in            4  iterations
 OUTER ITERATION NUMBER:    20
 BACKTRACK COUNT=  0 ACCEPTED RESIDUAL=   30.26508    INCOMING RESIDUAL=   30.26508    IBT= -1
 Convergence in            3  iterations
 OUTER ITERATION NUMBER:    21
 BACKTRACK COUNT=  0 ACCEPTED RESIDUAL=   13.26748    INCOMING RESIDUAL=   13.26748    IBT=  0
 Convergence in            3  iterations
 OUTER ITERATION NUMBER:    22
 BACKTRACK COUNT=  0 ACCEPTED RESIDUAL=   13.20510    INCOMING RESIDUAL=   13.20510    IBT=  0
 Convergence in            4  iterations
 OUTER ITERATION NUMBER:    23
 BACKTRACK COUNT=  0 ACCEPTED RESIDUAL=   7.183619    INCOMING RESIDUAL=   7.183619    IBT=  0
 Convergence in            4  iterations
 OUTER ITERATION NUMBER:    24
 BACKTRACK COUNT=  0 ACCEPTED RESIDUAL=   30.27925    INCOMING RESIDUAL=   30.27925    IBT= -1
 Convergence in            3  iterations
 OUTER ITERATION NUMBER:    25
 BACKTRACK COUNT=  0 ACCEPTED RESIDUAL=   13.27371    INCOMING RESIDUAL=   13.27371    IBT=  0
 Convergence in            3  iterations
 OUTER ITERATION NUMBER:    26
 BACKTRACK COUNT=  0 ACCEPTED RESIDUAL=   13.20788    INCOMING RESIDUAL=   13.20788    IBT=  0
 Convergence in            4  iterations
 OUTER ITERATION NUMBER:    27
 BACKTRACK COUNT=  0 ACCEPTED RESIDUAL=   7.183919    INCOMING RESIDUAL=   7.183919    IBT=  0
 Convergence in            4  iterations
 OUTER ITERATION NUMBER:    28
 BACKTRACK COUNT=  0 ACCEPTED RESIDUAL=   30.28203    INCOMING RESIDUAL=   30.28203    IBT= -1
 Convergence in            3  iterations
 OUTER ITERATION NUMBER:    29
 BACKTRACK COUNT=  0 ACCEPTED RESIDUAL=   13.27725    INCOMING RESIDUAL=   13.27725    IBT=  0
 Convergence in            3  iterations
 OUTER ITERATION NUMBER:    30
 BACKTRACK COUNT=  0 ACCEPTED RESIDUAL=   13.20410    INCOMING RESIDUAL=   13.20410    IBT=  0
 Convergence in            4  iterations
    30 ITERATIONS FOR TIME STEP       52 IN STRESS PERIOD       1

 MAXIMUM HEAD CHANGE FOR EACH ITERATION:

    HEAD CHANGE   HEAD CHANGE   HEAD CHANGE   HEAD CHANGE   HEAD CHANGE
  LAYER,ROW,COL LAYER,ROW,COL LAYER,ROW,COL LAYER,ROW,COL LAYER,ROW,COL
 ----------------------------------------------------------------------
    -0.1506        0.6216        0.4422       -0.4972       -0.2911    
  (  3,218, 57) (  1,219, 58) ( 12,219, 58) ( 12,219, 58) (  1,219, 58)
     0.6161        0.3043       -0.4403       -0.2972        0.6151    
  (  1,219, 58) (  1,219, 58) (  1,219, 58) (  1,219, 58) (  1,219, 58)
     0.2992       -0.4388       -0.2980        0.6133        0.2986    
  ( 12,219, 58) ( 12,219, 58) ( 12,219, 58) (  1,219, 58) (  1,219, 58)
    -0.4388       -0.2983        0.6134        0.2984       -0.4388    
  (  1,219, 58) ( 11,219, 58) (  1,219, 58) (  1,219, 58) (  1,219, 58)
    -0.2983        0.6134        0.2985       -0.4389       -0.2984    
  (  1,219, 58) (  1,219, 58) (  1,219, 58) (  1,219, 58) (  1,219, 58)
     0.6134        0.2985       -0.4389       -0.2984        0.6134    
  (  1,219, 58) (  1,219, 58) (  1,219, 58) (  1,219, 58) (  1,219, 58)


 MAXIMUM HEAD CHANGE IN FWL5 FOR EACH ITERATION:

    HEAD CHANGE   HEAD CHANGE   HEAD CHANGE   HEAD CHANGE   HEAD CHANGE
  WELL,  LAYER  WELL,  LAYER  WELL,  LAYER  WELL,  LAYER  WELL,  LAYER 
 ----------------------------------------------------------------------
      0.000         0.000         0.000         0.000         0.000    
  (   218,  3) (   219,  1) (   219, 12) (   219, 12) (   219,  1)
      0.000         0.000         0.000         0.000         0.000    
  (   219,  1) (   219,  1) (   219,  1) (   219,  1) (   219,  1)
      0.000         0.000         0.000         0.000         0.000    
  (   219, 12) (   219, 12) (   219, 12) (   219,  1) (   219,  1)
      0.000         0.000         0.000         0.000         0.000    
  (   219,  1) (   219, 11) (   219,  1) (   219,  1) (   219,  1)
      0.000         0.000         0.000         0.000         0.000    
  (   219,  1) (   219,  1) (   219,  1) (   219,  1) (   219,  1)
      0.000         0.000         0.000         0.000         0.000    
  (   219,  1) (   219,  1) (   219,  1) (   219,  1) (   219,  1)
0          ---- FAILED TO CONVERGE FOR DELT =   82.94     IN TIME STEP       52 OF STRESS PERIOD       1----



          TIME SUMMARY AT END OF TIME STEP        52 IN STRESS PERIOD         1
                    SECONDS       MINUTES        HOURS         DAYS          YEARS
                    -------------------------------------------------------------------
   TIME STEP LENGTH  7165848.      119430.8      1990.513      82.93806     0.2270720    
 STRESS PERIOD TIME 1.0008026E+08  1668004.      27800.07      1158.336      3.171352    
         TOTAL TIME 1.0008026E+08  1668004.      27800.07      1158.336      3.171352    
0          ---- NEW DELT OF   16.59     WILL BE USED IN TIME STEP       52 OF STRESS PERIOD       1----

0
 OUTER ITERATION NUMBER:     1
 BACKTRACK COUNT=  0 ACCEPTED RESIDUAL=   1312.902    INCOMING RESIDUAL=   1312.902    IBT=  0
 Convergence in            5  iterations
     1 ITERATIONS FOR TIME STEP       52 IN STRESS PERIOD       1

 MAXIMUM HEAD CHANGE FOR EACH ITERATION:

    HEAD CHANGE   HEAD CHANGE   HEAD CHANGE   HEAD CHANGE   HEAD CHANGE
  LAYER,ROW,COL LAYER,ROW,COL LAYER,ROW,COL LAYER,ROW,COL LAYER,ROW,COL
 ----------------------------------------------------------------------
    -0.7090E-01
  (  1,219, 58)


 MAXIMUM HEAD CHANGE IN FWL5 FOR EACH ITERATION:

    HEAD CHANGE   HEAD CHANGE   HEAD CHANGE   HEAD CHANGE   HEAD CHANGE
  WELL,  LAYER  WELL,  LAYER  WELL,  LAYER  WELL,  LAYER  WELL,  LAYER 
 ----------------------------------------------------------------------
      0.000    
  (   219,  1)



          TIME SUMMARY AT END OF TIME STEP        52 IN STRESS PERIOD         1
                    SECONDS       MINUTES        HOURS         DAYS          YEARS
                    -------------------------------------------------------------------
   TIME STEP LENGTH  1433170.      23886.16      398.1027      16.58761     4.5414403E-02
 STRESS PERIOD TIME 9.4347576E+07  1572460.      26207.66      1091.986      2.989694    
         TOTAL TIME 9.4347576E+07  1572460.      26207.66      1091.986      2.989694    
 OUTER ITERATION NUMBER:     1
 BACKTRACK COUNT=  0 ACCEPTED RESIDUAL=   2122.930    INCOMING RESIDUAL=   2122.930    IBT=  0
 Convergence in            7  iterations
 OUTER ITERATION NUMBER:     2
 BACKTRACK COUNT=  0 ACCEPTED RESIDUAL=   7.151340    INCOMING RESIDUAL=   7.151340    IBT=  0
 Convergence in            3  iterations
     2 ITERATIONS FOR TIME STEP       53 IN STRESS PERIOD       1

 MAXIMUM HEAD CHANGE FOR EACH ITERATION:

    HEAD CHANGE   HEAD CHANGE   HEAD CHANGE   HEAD CHANGE   HEAD CHANGE
  LAYER,ROW,COL LAYER,ROW,COL LAYER,ROW,COL LAYER,ROW,COL LAYER,ROW,COL
 ----------------------------------------------------------------------
    -0.2376       -0.2127E-01
  ( 12,219, 58) ( 12,250, 68)


 MAXIMUM HEAD CHANGE IN FWL5 FOR EACH ITERATION:

    HEAD CHANGE   HEAD CHANGE   HEAD CHANGE   HEAD CHANGE   HEAD CHANGE
  WELL,  LAYER  WELL,  LAYER  WELL,  LAYER  WELL,  LAYER  WELL,  LAYER 
 ----------------------------------------------------------------------
      0.000         0.000    
  (   219, 12) (   250, 12)



          TIME SUMMARY AT END OF TIME STEP        53 IN STRESS PERIOD         1
                    SECONDS       MINUTES        HOURS         DAYS          YEARS
                    -------------------------------------------------------------------
   TIME STEP LENGTH  1576487.      26274.78      437.9130      18.24637     4.9955849E-02
 STRESS PERIOD TIME 9.5924064E+07  1598734.      26645.57      1110.232      3.039650    
         TOTAL TIME 9.5924064E+07  1598734.      26645.57      1110.232      3.039650    
 OUTER ITERATION NUMBER:     1
 BACKTRACK COUNT=  0 ACCEPTED RESIDUAL=   1508.782    INCOMING RESIDUAL=   1508.782    IBT=  0
 Convergence in            7  iterations
 OUTER ITERATION NUMBER:     2
 BACKTRACK COUNT=  0 ACCEPTED RESIDUAL=   6.323241    INCOMING RESIDUAL=   6.323241    IBT=  0
 Convergence in            2  iterations
     2 ITERATIONS FOR TIME STEP       54 IN STRESS PERIOD       1

 MAXIMUM HEAD CHANGE FOR EACH ITERATION:

    HEAD CHANGE   HEAD CHANGE   HEAD CHANGE   HEAD CHANGE   HEAD CHANGE
  LAYER,ROW,COL LAYER,ROW,COL LAYER,ROW,COL LAYER,ROW,COL LAYER,ROW,COL
 ----------------------------------------------------------------------
    -0.2824       -0.2530E-01
  ( 12,219, 58) ( 12,235, 69)


 MAXIMUM HEAD CHANGE IN FWL5 FOR EACH ITERATION:

    HEAD CHANGE   HEAD CHANGE   HEAD CHANGE   HEAD CHANGE   HEAD CHANGE
  WELL,  LAYER  WELL,  LAYER  WELL,  LAYER  WELL,  LAYER  WELL,  LAYER 
 ----------------------------------------------------------------------
      0.000         0.000    
  (   219, 12) (   235, 12)



          TIME SUMMARY AT END OF TIME STEP        54 IN STRESS PERIOD         1
                    SECONDS       MINUTES        HOURS         DAYS          YEARS
                    -------------------------------------------------------------------
   TIME STEP LENGTH  1734135.      28902.25      481.7042      20.07101     5.4951426E-02
 STRESS PERIOD TIME 9.7658200E+07  1627637.      27127.28      1130.303      3.094602    
         TOTAL TIME 9.7658200E+07  1627637.      27127.28      1130.303      3.094602    
 OUTER ITERATION NUMBER:     1
 BACKTRACK COUNT=  0 ACCEPTED RESIDUAL=   1476.200    INCOMING RESIDUAL=   1476.200    IBT=  0
 Convergence in            7  iterations
 OUTER ITERATION NUMBER:     2
 BACKTRACK COUNT=  0 ACCEPTED RESIDUAL=   6.066448    INCOMING RESIDUAL=   6.066448    IBT=  0
 Convergence in            3  iterations
     2 ITERATIONS FOR TIME STEP       55 IN STRESS PERIOD       1

 MAXIMUM HEAD CHANGE FOR EACH ITERATION:

    HEAD CHANGE   HEAD CHANGE   HEAD CHANGE   HEAD CHANGE   HEAD CHANGE
  LAYER,ROW,COL LAYER,ROW,COL LAYER,ROW,COL LAYER,ROW,COL LAYER,ROW,COL
 ----------------------------------------------------------------------
    -0.4794        0.3873E-01
  ( 12,219, 58) ( 12,256, 75)


 MAXIMUM HEAD CHANGE IN FWL5 FOR EACH ITERATION:

    HEAD CHANGE   HEAD CHANGE   HEAD CHANGE   HEAD CHANGE   HEAD CHANGE
  WELL,  LAYER  WELL,  LAYER  WELL,  LAYER  WELL,  LAYER  WELL,  LAYER 
 ----------------------------------------------------------------------
      0.000         0.000    
  (   219, 12) (   256, 12)



          TIME SUMMARY AT END OF TIME STEP        55 IN STRESS PERIOD         1
                    SECONDS       MINUTES        HOURS         DAYS          YEARS
                    -------------------------------------------------------------------
   TIME STEP LENGTH  1907549.      31792.48      529.8747      22.07811     6.0446575E-02
 STRESS PERIOD TIME 9.9565744E+07  1659429.      27657.15      1152.381      3.155048    
         TOTAL TIME 9.9565744E+07  1659429.      27657.15      1152.381      3.155048    
 OUTER ITERATION NUMBER:     1
 BACKTRACK COUNT=  0 ACCEPTED RESIDUAL=   1379.637    INCOMING RESIDUAL=   1379.637    IBT=  0
 Convergence in           10  iterations
 OUTER ITERATION NUMBER:     2
 BACKTRACK COUNT=  0 ACCEPTED RESIDUAL=   3.950055    INCOMING RESIDUAL=   3.950055    IBT=  0
 Convergence in            3  iterations
     2 ITERATIONS FOR TIME STEP       56 IN STRESS PERIOD       1

 MAXIMUM HEAD CHANGE FOR EACH ITERATION:

    HEAD CHANGE   HEAD CHANGE   HEAD CHANGE   HEAD CHANGE   HEAD CHANGE
  LAYER,ROW,COL LAYER,ROW,COL LAYER,ROW,COL LAYER,ROW,COL LAYER,ROW,COL
 ----------------------------------------------------------------------
    -0.6817        0.7454E-01
  ( 12,219, 58) ( 12,219, 58)


 MAXIMUM HEAD CHANGE IN FWL5 FOR EACH ITERATION:

    HEAD CHANGE   HEAD CHANGE   HEAD CHANGE   HEAD CHANGE   HEAD CHANGE
  WELL,  LAYER  WELL,  LAYER  WELL,  LAYER  WELL,  LAYER  WELL,  LAYER 
 ----------------------------------------------------------------------
      0.000         0.000    
  (   219, 12) (   219, 12)



          TIME SUMMARY AT END OF TIME STEP        56 IN STRESS PERIOD         1
                    SECONDS       MINUTES        HOURS         DAYS          YEARS
                    -------------------------------------------------------------------
   TIME STEP LENGTH  2098304.      34971.73      582.8622      24.28592     6.6491239E-02
 STRESS PERIOD TIME 1.0166405E+08  1694401.      28240.01      1176.667      3.221539    
         TOTAL TIME 1.0166405E+08  1694401.      28240.01      1176.667      3.221539    
 OUTER ITERATION NUMBER:     1
 BACKTRACK COUNT=  0 ACCEPTED RESIDUAL=   1709.056    INCOMING RESIDUAL=   1709.056    IBT=  0
 Convergence in           10  iterations
 OUTER ITERATION NUMBER:     2
 BACKTRACK COUNT=  0 ACCEPTED RESIDUAL=   42.16386    INCOMING RESIDUAL=   42.16386    IBT=  0
 Convergence in            3  iterations
     2 ITERATIONS FOR TIME STEP       57 IN STRESS PERIOD       1

 MAXIMUM HEAD CHANGE FOR EACH ITERATION:

    HEAD CHANGE   HEAD CHANGE   HEAD CHANGE   HEAD CHANGE   HEAD CHANGE
  LAYER,ROW,COL LAYER,ROW,COL LAYER,ROW,COL LAYER,ROW,COL LAYER,ROW,COL
 ----------------------------------------------------------------------
    -0.7709        0.8335E-01
  (  1,219, 58) ( 12,219, 58)


 MAXIMUM HEAD CHANGE IN FWL5 FOR EACH ITERATION:

    HEAD CHANGE   HEAD CHANGE   HEAD CHANGE   HEAD CHANGE   HEAD CHANGE
  WELL,  LAYER  WELL,  LAYER  WELL,  LAYER  WELL,  LAYER  WELL,  LAYER 
 ----------------------------------------------------------------------
      0.000         0.000    
  (   219,  1) (   219, 12)



          TIME SUMMARY AT END OF TIME STEP        57 IN STRESS PERIOD         1
                    SECONDS       MINUTES        HOURS         DAYS          YEARS
                    -------------------------------------------------------------------
   TIME STEP LENGTH  2308134.      38468.90      641.1484      26.71452     7.3140360E-02
 STRESS PERIOD TIME 1.0397218E+08  1732870.      28881.16      1203.382      3.294680    
         TOTAL TIME 1.0397218E+08  1732870.      28881.16      1203.382      3.294680    
 OUTER ITERATION NUMBER:     1
 BACKTRACK COUNT=  0 ACCEPTED RESIDUAL=   1987.199    INCOMING RESIDUAL=   1987.199    IBT=  0
 Convergence in           10  iterations
 OUTER ITERATION NUMBER:     2
 BACKTRACK COUNT=  0 ACCEPTED RESIDUAL=   3.478359    INCOMING RESIDUAL=   3.478359    IBT=  0
 Convergence in            3  iterations
     2 ITERATIONS FOR TIME STEP       58 IN STRESS PERIOD       1

 MAXIMUM HEAD CHANGE FOR EACH ITERATION:

    HEAD CHANGE   HEAD CHANGE   HEAD CHANGE   HEAD CHANGE   HEAD CHANGE
  LAYER,ROW,COL LAYER,ROW,COL LAYER,ROW,COL LAYER,ROW,COL LAYER,ROW,COL
 ----------------------------------------------------------------------
    -0.7054        0.5970E-01
  (  2,219, 58) (  3,219, 58)


 MAXIMUM HEAD CHANGE IN FWL5 FOR EACH ITERATION:

    HEAD CHANGE   HEAD CHANGE   HEAD CHANGE   HEAD CHANGE   HEAD CHANGE
  WELL,  LAYER  WELL,  LAYER  WELL,  LAYER  WELL,  LAYER  WELL,  LAYER 
 ----------------------------------------------------------------------
      0.000         0.000    
  (   219,  2) (   219,  3)



          TIME SUMMARY AT END OF TIME STEP        58 IN STRESS PERIOD         1
                    SECONDS       MINUTES        HOURS         DAYS          YEARS
                    -------------------------------------------------------------------
   TIME STEP LENGTH  2538948.      42315.80      705.2633      29.38597     8.0454402E-02
 STRESS PERIOD TIME 1.0651114E+08  1775186.      29586.43      1232.768      3.375134    
         TOTAL TIME 1.0651114E+08  1775186.      29586.43      1232.768      3.375134    
 OUTER ITERATION NUMBER:     1
 BACKTRACK COUNT=  0 ACCEPTED RESIDUAL=   1511.978    INCOMING RESIDUAL=   1511.978    IBT=  0
 Convergence in           10  iterations
 OUTER ITERATION NUMBER:     2
 BACKTRACK COUNT=  0 ACCEPTED RESIDUAL=   2.589117    INCOMING RESIDUAL=   2.589117    IBT=  0
 Convergence in            2  iterations
     2 ITERATIONS FOR TIME STEP       59 IN STRESS PERIOD       1

 MAXIMUM HEAD CHANGE FOR EACH ITERATION:

    HEAD CHANGE   HEAD CHANGE   HEAD CHANGE   HEAD CHANGE   HEAD CHANGE
  LAYER,ROW,COL LAYER,ROW,COL LAYER,ROW,COL LAYER,ROW,COL LAYER,ROW,COL
 ----------------------------------------------------------------------
    -0.5556        0.3181E-01
  (  1,219, 58) (  1,219, 58)


 MAXIMUM HEAD CHANGE IN FWL5 FOR EACH ITERATION:

    HEAD CHANGE   HEAD CHANGE   HEAD CHANGE   HEAD CHANGE   HEAD CHANGE
  WELL,  LAYER  WELL,  LAYER  WELL,  LAYER  WELL,  LAYER  WELL,  LAYER 
 ----------------------------------------------------------------------
      0.000         0.000    
  (   219,  1) (   219,  1)



          TIME SUMMARY AT END OF TIME STEP        59 IN STRESS PERIOD         1
                    SECONDS       MINUTES        HOURS         DAYS          YEARS
                    -------------------------------------------------------------------
   TIME STEP LENGTH  2792842.      46547.38      775.7896      32.32457     8.8499837E-02
 STRESS PERIOD TIME 1.0930398E+08  1821733.      30362.21      1265.092      3.463634    
         TOTAL TIME 1.0930398E+08  1821733.      30362.21      1265.092      3.463634    
 OUTER ITERATION NUMBER:     1
 BACKTRACK COUNT=  0 ACCEPTED RESIDUAL=   1626.815    INCOMING RESIDUAL=   1626.815    IBT=  0
 Convergence in           10  iterations
 OUTER ITERATION NUMBER:     2
 BACKTRACK COUNT=  0 ACCEPTED RESIDUAL=   1.878989    INCOMING RESIDUAL=   1.878989    IBT=  0
 Convergence in            2  iterations
     2 ITERATIONS FOR TIME STEP       60 IN STRESS PERIOD       1

 MAXIMUM HEAD CHANGE FOR EACH ITERATION:

    HEAD CHANGE   HEAD CHANGE   HEAD CHANGE   HEAD CHANGE   HEAD CHANGE
  LAYER,ROW,COL LAYER,ROW,COL LAYER,ROW,COL LAYER,ROW,COL LAYER,ROW,COL
 ----------------------------------------------------------------------
    -0.3981        0.1765E-01
  (  1,219, 58) (  1,218, 59)


 MAXIMUM HEAD CHANGE IN FWL5 FOR EACH ITERATION:

    HEAD CHANGE   HEAD CHANGE   HEAD CHANGE   HEAD CHANGE   HEAD CHANGE
  WELL,  LAYER  WELL,  LAYER  WELL,  LAYER  WELL,  LAYER  WELL,  LAYER 
 ----------------------------------------------------------------------
      0.000         0.000    
  (   219,  1) (   218,  1)



          TIME SUMMARY AT END OF TIME STEP        60 IN STRESS PERIOD         1
                    SECONDS       MINUTES        HOURS         DAYS          YEARS
                    -------------------------------------------------------------------
   TIME STEP LENGTH  3072127.      51202.11      853.3685      35.55702     9.7349823E-02
 STRESS PERIOD TIME 1.1237610E+08  1872935.      31215.59      1300.649      3.560984    
         TOTAL TIME 1.1237610E+08  1872935.      31215.59      1300.649      3.560984    
 OUTER ITERATION NUMBER:     1
 BACKTRACK COUNT=  0 ACCEPTED RESIDUAL=   1373.083    INCOMING RESIDUAL=   1373.083    IBT=  0
 Convergence in           10  iterations
 OUTER ITERATION NUMBER:     2
 BACKTRACK COUNT=  0 ACCEPTED RESIDUAL=   1.557040    INCOMING RESIDUAL=   1.557040    IBT=  0
 Convergence in            2  iterations
     2 ITERATIONS FOR TIME STEP       61 IN STRESS PERIOD       1

 MAXIMUM HEAD CHANGE FOR EACH ITERATION:

    HEAD CHANGE   HEAD CHANGE   HEAD CHANGE   HEAD CHANGE   HEAD CHANGE
  LAYER,ROW,COL LAYER,ROW,COL LAYER,ROW,COL LAYER,ROW,COL LAYER,ROW,COL
 ----------------------------------------------------------------------
    -0.2681       -0.4685E-01
  (  1,219, 58) ( 12,270, 56)


 MAXIMUM HEAD CHANGE IN FWL5 FOR EACH ITERATION:

    HEAD CHANGE   HEAD CHANGE   HEAD CHANGE   HEAD CHANGE   HEAD CHANGE
  WELL,  LAYER  WELL,  LAYER  WELL,  LAYER  WELL,  LAYER  WELL,  LAYER 
 ----------------------------------------------------------------------
      0.000         0.000    
  (   219,  1) (   270, 12)



          TIME SUMMARY AT END OF TIME STEP        61 IN STRESS PERIOD         1
                    SECONDS       MINUTES        HOURS         DAYS          YEARS
                    -------------------------------------------------------------------
   TIME STEP LENGTH  3379340.      56322.32      938.7054      39.11272     0.1070848    
 STRESS PERIOD TIME 1.1575544E+08  1929257.      32154.29      1339.762      3.668069    
         TOTAL TIME 1.1575544E+08  1929257.      32154.29      1339.762      3.668069    
 OUTER ITERATION NUMBER:     1
 BACKTRACK COUNT=  0 ACCEPTED RESIDUAL=   1123.109    INCOMING RESIDUAL=   1123.109    IBT=  0
 Convergence in            9  iterations
 OUTER ITERATION NUMBER:     2
 BACKTRACK COUNT=  0 ACCEPTED RESIDUAL=   1.619502    INCOMING RESIDUAL=   1.619502    IBT=  0
 Convergence in            2  iterations
     2 ITERATIONS FOR TIME STEP       62 IN STRESS PERIOD       1

 MAXIMUM HEAD CHANGE FOR EACH ITERATION:

    HEAD CHANGE   HEAD CHANGE   HEAD CHANGE   HEAD CHANGE   HEAD CHANGE
  LAYER,ROW,COL LAYER,ROW,COL LAYER,ROW,COL LAYER,ROW,COL LAYER,ROW,COL
 ----------------------------------------------------------------------
    -0.1777       -0.2634E-01
  (  1,219, 58) ( 12,270, 56)


 MAXIMUM HEAD CHANGE IN FWL5 FOR EACH ITERATION:

    HEAD CHANGE   HEAD CHANGE   HEAD CHANGE   HEAD CHANGE   HEAD CHANGE
  WELL,  LAYER  WELL,  LAYER  WELL,  LAYER  WELL,  LAYER  WELL,  LAYER 
 ----------------------------------------------------------------------
      0.000         0.000    
  (   219,  1) (   270, 12)



          TIME SUMMARY AT END OF TIME STEP        62 IN STRESS PERIOD         1
                    SECONDS       MINUTES        HOURS         DAYS          YEARS
                    -------------------------------------------------------------------
   TIME STEP LENGTH  3717274.      61954.56      1032.576      43.02400     0.1177933    
 STRESS PERIOD TIME 1.1947271E+08  1991212.      33186.86      1382.786      3.785862    
         TOTAL TIME 1.1947271E+08  1991212.      33186.86      1382.786      3.785862    
 OUTER ITERATION NUMBER:     1
 BACKTRACK COUNT=  0 ACCEPTED RESIDUAL=   1555.430    INCOMING RESIDUAL=   1555.430    IBT=  0
 Convergence in           10  iterations
 OUTER ITERATION NUMBER:     2
 BACKTRACK COUNT=  0 ACCEPTED RESIDUAL=  0.7965161    INCOMING RESIDUAL=  0.7965161    IBT=  0
 Convergence in            2  iterations
     2 ITERATIONS FOR TIME STEP       63 IN STRESS PERIOD       1

 MAXIMUM HEAD CHANGE FOR EACH ITERATION:

    HEAD CHANGE   HEAD CHANGE   HEAD CHANGE   HEAD CHANGE   HEAD CHANGE
  LAYER,ROW,COL LAYER,ROW,COL LAYER,ROW,COL LAYER,ROW,COL LAYER,ROW,COL
 ----------------------------------------------------------------------
    -0.1194       -0.3840E-01
  (  2,219, 58) ( 12,250, 68)


 MAXIMUM HEAD CHANGE IN FWL5 FOR EACH ITERATION:

    HEAD CHANGE   HEAD CHANGE   HEAD CHANGE   HEAD CHANGE   HEAD CHANGE
  WELL,  LAYER  WELL,  LAYER  WELL,  LAYER  WELL,  LAYER  WELL,  LAYER 
 ----------------------------------------------------------------------
      0.000         0.000    
  (   219,  2) (   250, 12)



          TIME SUMMARY AT END OF TIME STEP        63 IN STRESS PERIOD         1
                    SECONDS       MINUTES        HOURS         DAYS          YEARS
                    -------------------------------------------------------------------
   TIME STEP LENGTH  4089001.      68150.02      1135.834      47.32640     0.1295726    
 STRESS PERIOD TIME 1.2356172E+08  2059362.      34322.70      1430.112      3.915434    
         TOTAL TIME 1.2356172E+08  2059362.      34322.70      1430.112      3.915434    
 OUTER ITERATION NUMBER:     1
 BACKTRACK COUNT=  0 ACCEPTED RESIDUAL=   1540.695    INCOMING RESIDUAL=   1540.695    IBT=  0
 Convergence in           10  iterations
     1 ITERATIONS FOR TIME STEP       64 IN STRESS PERIOD       1

 MAXIMUM HEAD CHANGE FOR EACH ITERATION:

    HEAD CHANGE   HEAD CHANGE   HEAD CHANGE   HEAD CHANGE   HEAD CHANGE
  LAYER,ROW,COL LAYER,ROW,COL LAYER,ROW,COL LAYER,ROW,COL LAYER,ROW,COL
 ----------------------------------------------------------------------
    -0.9002E-01
  (  1,219, 58)


 MAXIMUM HEAD CHANGE IN FWL5 FOR EACH ITERATION:

    HEAD CHANGE   HEAD CHANGE   HEAD CHANGE   HEAD CHANGE   HEAD CHANGE
  WELL,  LAYER  WELL,  LAYER  WELL,  LAYER  WELL,  LAYER  WELL,  LAYER 
 ----------------------------------------------------------------------
      0.000    
  (   219,  1)



          TIME SUMMARY AT END OF TIME STEP        64 IN STRESS PERIOD         1
                    SECONDS       MINUTES        HOURS         DAYS          YEARS
                    -------------------------------------------------------------------
   TIME STEP LENGTH  4497902.      74965.02      1249.417      52.05905     0.1425299    
 STRESS PERIOD TIME 1.2805962E+08  2134327.      35572.12      1482.172      4.057964    
         TOTAL TIME 1.2805962E+08  2134327.      35572.12      1482.172      4.057964    
 OUTER ITERATION NUMBER:     1
 BACKTRACK COUNT=  0 ACCEPTED RESIDUAL=   1175.180    INCOMING RESIDUAL=   1175.180    IBT=  0
 MAT1S did not converge
     1 ITERATIONS FOR TIME STEP       65 IN STRESS PERIOD       1

 MAXIMUM HEAD CHANGE FOR EACH ITERATION:

    HEAD CHANGE   HEAD CHANGE   HEAD CHANGE   HEAD CHANGE   HEAD CHANGE
  LAYER,ROW,COL LAYER,ROW,COL LAYER,ROW,COL LAYER,ROW,COL LAYER,ROW,COL
 ----------------------------------------------------------------------
    -0.7200E-01
  (  1,219, 58)


 MAXIMUM HEAD CHANGE IN FWL5 FOR EACH ITERATION:

    HEAD CHANGE   HEAD CHANGE   HEAD CHANGE   HEAD CHANGE   HEAD CHANGE
  WELL,  LAYER  WELL,  LAYER  WELL,  LAYER  WELL,  LAYER  WELL,  LAYER 
 ----------------------------------------------------------------------
      0.000    
  (   219,  1)



          TIME SUMMARY AT END OF TIME STEP        65 IN STRESS PERIOD         1
                    SECONDS       MINUTES        HOURS         DAYS          YEARS
                    -------------------------------------------------------------------
   TIME STEP LENGTH  4947692.      82461.52      1374.359      57.26495     0.1567829    
 STRESS PERIOD TIME 1.3300731E+08  2216788.      36946.48      1539.437      4.214747    
         TOTAL TIME 1.3300731E+08  2216788.      36946.48      1539.437      4.214747    
 OUTER ITERATION NUMBER:     1
 BACKTRACK COUNT=  0 ACCEPTED RESIDUAL=   1081.163    INCOMING RESIDUAL=   1081.163    IBT=  0
 MAT1S did not converge
     1 ITERATIONS FOR TIME STEP       66 IN STRESS PERIOD       1

 MAXIMUM HEAD CHANGE FOR EACH ITERATION:

    HEAD CHANGE   HEAD CHANGE   HEAD CHANGE   HEAD CHANGE   HEAD CHANGE
  LAYER,ROW,COL LAYER,ROW,COL LAYER,ROW,COL LAYER,ROW,COL LAYER,ROW,COL
 ----------------------------------------------------------------------
    -0.5959E-01
  ( 12,219, 58)


 MAXIMUM HEAD CHANGE IN FWL5 FOR EACH ITERATION:

    HEAD CHANGE   HEAD CHANGE   HEAD CHANGE   HEAD CHANGE   HEAD CHANGE
  WELL,  LAYER  WELL,  LAYER  WELL,  LAYER  WELL,  LAYER  WELL,  LAYER 
 ----------------------------------------------------------------------
      0.000    
  (   219, 12)



          TIME SUMMARY AT END OF TIME STEP        66 IN STRESS PERIOD         1
                    SECONDS       MINUTES        HOURS         DAYS          YEARS
                    -------------------------------------------------------------------
   TIME STEP LENGTH  5442461.      90707.68      1511.795      62.99144     0.1724612    
 STRESS PERIOD TIME 1.3844978E+08  2307496.      38458.27      1602.428      4.387208    
         TOTAL TIME 1.3844978E+08  2307496.      38458.27      1602.428      4.387208    
 OUTER ITERATION NUMBER:     1
 BACKTRACK COUNT=  0 ACCEPTED RESIDUAL=   1316.918    INCOMING RESIDUAL=   1316.918    IBT=  0
 Convergence in           12  iterations
     1 ITERATIONS FOR TIME STEP       67 IN STRESS PERIOD       1

 MAXIMUM HEAD CHANGE FOR EACH ITERATION:

    HEAD CHANGE   HEAD CHANGE   HEAD CHANGE   HEAD CHANGE   HEAD CHANGE
  LAYER,ROW,COL LAYER,ROW,COL LAYER,ROW,COL LAYER,ROW,COL LAYER,ROW,COL
 ----------------------------------------------------------------------
    -0.5304E-01
  (  7,219, 58)


 MAXIMUM HEAD CHANGE IN FWL5 FOR EACH ITERATION:

    HEAD CHANGE   HEAD CHANGE   HEAD CHANGE   HEAD CHANGE   HEAD CHANGE
  WELL,  LAYER  WELL,  LAYER  WELL,  LAYER  WELL,  LAYER  WELL,  LAYER 
 ----------------------------------------------------------------------
      0.000    
  (   219,  7)



          TIME SUMMARY AT END OF TIME STEP        67 IN STRESS PERIOD         1
                    SECONDS       MINUTES        HOURS         DAYS          YEARS
                    -------------------------------------------------------------------
   TIME STEP LENGTH  5986707.      99778.45      1662.974      69.29060     0.1897073    
 STRESS PERIOD TIME 1.4443648E+08  2407275.      40121.25      1671.719      4.576916    
         TOTAL TIME 1.4443648E+08  2407275.      40121.25      1671.719      4.576916    
 OUTER ITERATION NUMBER:     1
 BACKTRACK COUNT=  0 ACCEPTED RESIDUAL=   1776.299    INCOMING RESIDUAL=   1776.299    IBT=  0
 MAT1S did not converge
     1 ITERATIONS FOR TIME STEP       68 IN STRESS PERIOD       1

 MAXIMUM HEAD CHANGE FOR EACH ITERATION:

    HEAD CHANGE   HEAD CHANGE   HEAD CHANGE   HEAD CHANGE   HEAD CHANGE
  LAYER,ROW,COL LAYER,ROW,COL LAYER,ROW,COL LAYER,ROW,COL LAYER,ROW,COL
 ----------------------------------------------------------------------
    -0.4725E-01
  (  1,219, 58)


 MAXIMUM HEAD CHANGE IN FWL5 FOR EACH ITERATION:

    HEAD CHANGE   HEAD CHANGE   HEAD CHANGE   HEAD CHANGE   HEAD CHANGE
  WELL,  LAYER  WELL,  LAYER  WELL,  LAYER  WELL,  LAYER  WELL,  LAYER 
 ----------------------------------------------------------------------
      0.000    
  (   219,  1)



          TIME SUMMARY AT END OF TIME STEP        68 IN STRESS PERIOD         1
                    SECONDS       MINUTES        HOURS         DAYS          YEARS
                    -------------------------------------------------------------------
   TIME STEP LENGTH  6585378.      109756.3      1829.272      76.21965     0.2086780    
 STRESS PERIOD TIME 1.5102186E+08  2517031.      41950.52      1747.938      4.785594    
         TOTAL TIME 1.5102186E+08  2517031.      41950.52      1747.938      4.785594    
 OUTER ITERATION NUMBER:     1
 BACKTRACK COUNT=  0 ACCEPTED RESIDUAL=   1260.659    INCOMING RESIDUAL=   1260.659    IBT=  0
 Convergence in           12  iterations
     1 ITERATIONS FOR TIME STEP       69 IN STRESS PERIOD       1

 MAXIMUM HEAD CHANGE FOR EACH ITERATION:

    HEAD CHANGE   HEAD CHANGE   HEAD CHANGE   HEAD CHANGE   HEAD CHANGE
  LAYER,ROW,COL LAYER,ROW,COL LAYER,ROW,COL LAYER,ROW,COL LAYER,ROW,COL
 ----------------------------------------------------------------------
    -0.4534E-01
  (  1,215, 57)


 MAXIMUM HEAD CHANGE IN FWL5 FOR EACH ITERATION:

    HEAD CHANGE   HEAD CHANGE   HEAD CHANGE   HEAD CHANGE   HEAD CHANGE
  WELL,  LAYER  WELL,  LAYER  WELL,  LAYER  WELL,  LAYER  WELL,  LAYER 
 ----------------------------------------------------------------------
      0.000    
  (   215,  1)



          TIME SUMMARY AT END OF TIME STEP        69 IN STRESS PERIOD         1
                    SECONDS       MINUTES        HOURS         DAYS          YEARS
                    -------------------------------------------------------------------
   TIME STEP LENGTH  7243916.      120731.9      2012.199      83.84162     0.2295458    
 STRESS PERIOD TIME 1.5826578E+08  2637763.      43962.71      1831.780      5.015140    
         TOTAL TIME 1.5826578E+08  2637763.      43962.71      1831.780      5.015140    
 OUTER ITERATION NUMBER:     1
 BACKTRACK COUNT=  0 ACCEPTED RESIDUAL=   1710.329    INCOMING RESIDUAL=   1710.329    IBT=  0
 Convergence in           13  iterations
     1 ITERATIONS FOR TIME STEP       70 IN STRESS PERIOD       1

 MAXIMUM HEAD CHANGE FOR EACH ITERATION:

    HEAD CHANGE   HEAD CHANGE   HEAD CHANGE   HEAD CHANGE   HEAD CHANGE
  LAYER,ROW,COL LAYER,ROW,COL LAYER,ROW,COL LAYER,ROW,COL LAYER,ROW,COL
 ----------------------------------------------------------------------
    -0.4376E-01
  ( 12,215, 57)


 MAXIMUM HEAD CHANGE IN FWL5 FOR EACH ITERATION:

    HEAD CHANGE   HEAD CHANGE   HEAD CHANGE   HEAD CHANGE   HEAD CHANGE
  WELL,  LAYER  WELL,  LAYER  WELL,  LAYER  WELL,  LAYER  WELL,  LAYER 
 ----------------------------------------------------------------------
      0.000    
  (   215, 12)



          TIME SUMMARY AT END OF TIME STEP        70 IN STRESS PERIOD         1
                    SECONDS       MINUTES        HOURS         DAYS          YEARS
                    -------------------------------------------------------------------
   TIME STEP LENGTH  7968308.      132805.1      2213.419      92.22578     0.2525004    
 STRESS PERIOD TIME 1.6623408E+08  2770568.      46176.13      1924.005      5.267640    
         TOTAL TIME 1.6623408E+08  2770568.      46176.13      1924.005      5.267640    
 OUTER ITERATION NUMBER:     1
 BACKTRACK COUNT=  0 ACCEPTED RESIDUAL=   2041.241    INCOMING RESIDUAL=   2041.241    IBT=  0
 MAT1S did not converge
     1 ITERATIONS FOR TIME STEP       71 IN STRESS PERIOD       1

 MAXIMUM HEAD CHANGE FOR EACH ITERATION:

    HEAD CHANGE   HEAD CHANGE   HEAD CHANGE   HEAD CHANGE   HEAD CHANGE
  LAYER,ROW,COL LAYER,ROW,COL LAYER,ROW,COL LAYER,ROW,COL LAYER,ROW,COL
 ----------------------------------------------------------------------
    -0.4113E-01
  ( 12,215, 57)


 MAXIMUM HEAD CHANGE IN FWL5 FOR EACH ITERATION:

    HEAD CHANGE   HEAD CHANGE   HEAD CHANGE   HEAD CHANGE   HEAD CHANGE
  WELL,  LAYER  WELL,  LAYER  WELL,  LAYER  WELL,  LAYER  WELL,  LAYER 
 ----------------------------------------------------------------------
      0.000    
  (   215, 12)



          TIME SUMMARY AT END OF TIME STEP        71 IN STRESS PERIOD         1
                    SECONDS       MINUTES        HOURS         DAYS          YEARS
                    -------------------------------------------------------------------
   TIME STEP LENGTH  8765139.      146085.7      2434.761      101.4484     0.2777505    
 STRESS PERIOD TIME 1.7499922E+08  2916654.      48610.89      2025.454      5.545390    
         TOTAL TIME 1.7499922E+08  2916654.      48610.89      2025.454      5.545390    
 OUTER ITERATION NUMBER:     1
 BACKTRACK COUNT=  0 ACCEPTED RESIDUAL=   1937.101    INCOMING RESIDUAL=   1937.101    IBT=  0
 MAT1S did not converge
     1 ITERATIONS FOR TIME STEP       72 IN STRESS PERIOD       1

 MAXIMUM HEAD CHANGE FOR EACH ITERATION:

    HEAD CHANGE   HEAD CHANGE   HEAD CHANGE   HEAD CHANGE   HEAD CHANGE
  LAYER,ROW,COL LAYER,ROW,COL LAYER,ROW,COL LAYER,ROW,COL LAYER,ROW,COL
 ----------------------------------------------------------------------
     0.4407E-01
  (  1,200, 58)


 MAXIMUM HEAD CHANGE IN FWL5 FOR EACH ITERATION:

    HEAD CHANGE   HEAD CHANGE   HEAD CHANGE   HEAD CHANGE   HEAD CHANGE
  WELL,  LAYER  WELL,  LAYER  WELL,  LAYER  WELL,  LAYER  WELL,  LAYER 
 ----------------------------------------------------------------------
      0.000    
  (   200,  1)



          TIME SUMMARY AT END OF TIME STEP        72 IN STRESS PERIOD         1
                    SECONDS       MINUTES        HOURS         DAYS          YEARS
                    -------------------------------------------------------------------
   TIME STEP LENGTH  9641653.      160694.2      2678.237      111.5932     0.3055255    
 STRESS PERIOD TIME 1.8464086E+08  3077348.      51289.13      2137.047      5.850916    
         TOTAL TIME 1.8464086E+08  3077348.      51289.13      2137.047      5.850916    
 OUTER ITERATION NUMBER:     1
 BACKTRACK COUNT=  0 ACCEPTED RESIDUAL=   940.0239    INCOMING RESIDUAL=   940.0239    IBT=  0
 MAT1S did not converge
     1 ITERATIONS FOR TIME STEP       73 IN STRESS PERIOD       1

 MAXIMUM HEAD CHANGE FOR EACH ITERATION:

    HEAD CHANGE   HEAD CHANGE   HEAD CHANGE   HEAD CHANGE   HEAD CHANGE
  LAYER,ROW,COL LAYER,ROW,COL LAYER,ROW,COL LAYER,ROW,COL LAYER,ROW,COL
 ----------------------------------------------------------------------
     0.4585E-01
  ( 12,200, 58)


 MAXIMUM HEAD CHANGE IN FWL5 FOR EACH ITERATION:

    HEAD CHANGE   HEAD CHANGE   HEAD CHANGE   HEAD CHANGE   HEAD CHANGE
  WELL,  LAYER  WELL,  LAYER  WELL,  LAYER  WELL,  LAYER  WELL,  LAYER 
 ----------------------------------------------------------------------
      0.000    
  (   200, 12)



          TIME SUMMARY AT END OF TIME STEP        73 IN STRESS PERIOD         1
                    SECONDS       MINUTES        HOURS         DAYS          YEARS
                    -------------------------------------------------------------------
   TIME STEP LENGTH 1.0605818E+07  176763.6      2946.061      122.7525     0.3360781    
 STRESS PERIOD TIME 1.9524669E+08  3254112.      54235.19      2259.800      6.186994    
         TOTAL TIME 1.9524669E+08  3254112.      54235.19      2259.800      6.186994    
 OUTER ITERATION NUMBER:     1
 BACKTRACK COUNT=  0 ACCEPTED RESIDUAL=   856.9205    INCOMING RESIDUAL=   856.9205    IBT=  0
 Convergence in           13  iterations
     1 ITERATIONS FOR TIME STEP       74 IN STRESS PERIOD       1

 MAXIMUM HEAD CHANGE FOR EACH ITERATION:

    HEAD CHANGE   HEAD CHANGE   HEAD CHANGE   HEAD CHANGE   HEAD CHANGE
  LAYER,ROW,COL LAYER,ROW,COL LAYER,ROW,COL LAYER,ROW,COL LAYER,ROW,COL
 ----------------------------------------------------------------------
     0.5156E-01
  (  1,200, 58)


 MAXIMUM HEAD CHANGE IN FWL5 FOR EACH ITERATION:

    HEAD CHANGE   HEAD CHANGE   HEAD CHANGE   HEAD CHANGE   HEAD CHANGE
  WELL,  LAYER  WELL,  LAYER  WELL,  LAYER  WELL,  LAYER  WELL,  LAYER 
 ----------------------------------------------------------------------
      0.000    
  (   200,  1)



          TIME SUMMARY AT END OF TIME STEP        74 IN STRESS PERIOD         1
                    SECONDS       MINUTES        HOURS         DAYS          YEARS
                    -------------------------------------------------------------------
   TIME STEP LENGTH 1.1666400E+07  194440.0      3240.667      135.0278     0.3696859    
 STRESS PERIOD TIME 2.0691309E+08  3448552.      57475.86      2394.827      6.556680    
         TOTAL TIME 2.0691309E+08  3448552.      57475.86      2394.827      6.556680    
 OUTER ITERATION NUMBER:     1
 BACKTRACK COUNT=  0 ACCEPTED RESIDUAL=   1203.731    INCOMING RESIDUAL=   1203.731    IBT=  0
 Convergence in           12  iterations
     1 ITERATIONS FOR TIME STEP       75 IN STRESS PERIOD       1

 MAXIMUM HEAD CHANGE FOR EACH ITERATION:

    HEAD CHANGE   HEAD CHANGE   HEAD CHANGE   HEAD CHANGE   HEAD CHANGE
  LAYER,ROW,COL LAYER,ROW,COL LAYER,ROW,COL LAYER,ROW,COL LAYER,ROW,COL
 ----------------------------------------------------------------------
     0.5696E-01
  (  1,200, 58)


 MAXIMUM HEAD CHANGE IN FWL5 FOR EACH ITERATION:

    HEAD CHANGE   HEAD CHANGE   HEAD CHANGE   HEAD CHANGE   HEAD CHANGE
  WELL,  LAYER  WELL,  LAYER  WELL,  LAYER  WELL,  LAYER  WELL,  LAYER 
 ----------------------------------------------------------------------
      0.000    
  (   200,  1)



          TIME SUMMARY AT END OF TIME STEP        75 IN STRESS PERIOD         1
                    SECONDS       MINUTES        HOURS         DAYS          YEARS
                    -------------------------------------------------------------------
   TIME STEP LENGTH 1.2833040E+07  213884.0      3564.733      148.5306     0.4066545    
 STRESS PERIOD TIME 2.1974613E+08  3662436.      61040.59      2543.358      6.963335    
         TOTAL TIME 2.1974613E+08  3662436.      61040.59      2543.358      6.963335    
 OUTER ITERATION NUMBER:     1
 BACKTRACK COUNT=  0 ACCEPTED RESIDUAL=   1006.818    INCOMING RESIDUAL=   1006.818    IBT=  0
 Convergence in           13  iterations
     1 ITERATIONS FOR TIME STEP       76 IN STRESS PERIOD       1

 MAXIMUM HEAD CHANGE FOR EACH ITERATION:

    HEAD CHANGE   HEAD CHANGE   HEAD CHANGE   HEAD CHANGE   HEAD CHANGE
  LAYER,ROW,COL LAYER,ROW,COL LAYER,ROW,COL LAYER,ROW,COL LAYER,ROW,COL
 ----------------------------------------------------------------------
    -0.8219E-01
  (  2,167, 48)


 MAXIMUM HEAD CHANGE IN FWL5 FOR EACH ITERATION:

    HEAD CHANGE   HEAD CHANGE   HEAD CHANGE   HEAD CHANGE   HEAD CHANGE
  WELL,  LAYER  WELL,  LAYER  WELL,  LAYER  WELL,  LAYER  WELL,  LAYER 
 ----------------------------------------------------------------------
      0.000    
  (   167,  2)



          TIME SUMMARY AT END OF TIME STEP        76 IN STRESS PERIOD         1
                    SECONDS       MINUTES        HOURS         DAYS          YEARS
                    -------------------------------------------------------------------
   TIME STEP LENGTH 1.4116345E+07  235272.4      3921.207      163.3836     0.4473200    
 STRESS PERIOD TIME 2.3386248E+08  3897708.      64961.80      2706.742      7.410655    
         TOTAL TIME 2.3386248E+08  3897708.      64961.80      2706.742      7.410655    
 OUTER ITERATION NUMBER:     1
 BACKTRACK COUNT=  0 ACCEPTED RESIDUAL=   757.9256    INCOMING RESIDUAL=   757.9256    IBT=  0
 MAT1S did not converge
     1 ITERATIONS FOR TIME STEP       77 IN STRESS PERIOD       1

 MAXIMUM HEAD CHANGE FOR EACH ITERATION:

    HEAD CHANGE   HEAD CHANGE   HEAD CHANGE   HEAD CHANGE   HEAD CHANGE
  LAYER,ROW,COL LAYER,ROW,COL LAYER,ROW,COL LAYER,ROW,COL LAYER,ROW,COL
 ----------------------------------------------------------------------
    -0.9769E-01
  (  2,167, 48)


 MAXIMUM HEAD CHANGE IN FWL5 FOR EACH ITERATION:

    HEAD CHANGE   HEAD CHANGE   HEAD CHANGE   HEAD CHANGE   HEAD CHANGE
  WELL,  LAYER  WELL,  LAYER  WELL,  LAYER  WELL,  LAYER  WELL,  LAYER 
 ----------------------------------------------------------------------
      0.000    
  (   167,  2)



          TIME SUMMARY AT END OF TIME STEP        77 IN STRESS PERIOD         1
                    SECONDS       MINUTES        HOURS         DAYS          YEARS
                    -------------------------------------------------------------------
   TIME STEP LENGTH 1.5527980E+07  258799.7      4313.328      179.7220     0.4920520    
 STRESS PERIOD TIME 2.4939045E+08  4156508.      69275.12      2886.464      7.902707    
         TOTAL TIME 2.4939045E+08  4156508.      69275.12      2886.464      7.902707    
 OUTER ITERATION NUMBER:     1
 BACKTRACK COUNT=  0 ACCEPTED RESIDUAL=   659.2558    INCOMING RESIDUAL=   659.2558    IBT=  0
 MAT1S did not converge
     1 ITERATIONS FOR TIME STEP       78 IN STRESS PERIOD       1

 MAXIMUM HEAD CHANGE FOR EACH ITERATION:

    HEAD CHANGE   HEAD CHANGE   HEAD CHANGE   HEAD CHANGE   HEAD CHANGE
  LAYER,ROW,COL LAYER,ROW,COL LAYER,ROW,COL LAYER,ROW,COL LAYER,ROW,COL
 ----------------------------------------------------------------------
    -0.8747E-01
  (  1,167, 48)


 MAXIMUM HEAD CHANGE IN FWL5 FOR EACH ITERATION:

    HEAD CHANGE   HEAD CHANGE   HEAD CHANGE   HEAD CHANGE   HEAD CHANGE
  WELL,  LAYER  WELL,  LAYER  WELL,  LAYER  WELL,  LAYER  WELL,  LAYER 
 ----------------------------------------------------------------------
      0.000    
  (   167,  1)



          TIME SUMMARY AT END OF TIME STEP        78 IN STRESS PERIOD         1
                    SECONDS       MINUTES        HOURS         DAYS          YEARS
                    -------------------------------------------------------------------
   TIME STEP LENGTH 1.7080778E+07  284679.6      4744.661      197.6942     0.5412572    
 STRESS PERIOD TIME 2.6647123E+08  4441187.      74019.78      3084.157      8.443963    
         TOTAL TIME 2.6647123E+08  4441187.      74019.78      3084.157      8.443963    
 OUTER ITERATION NUMBER:     1
 BACKTRACK COUNT=  0 ACCEPTED RESIDUAL=   979.1622    INCOMING RESIDUAL=   979.1622    IBT=  0
 MAT1S did not converge
     1 ITERATIONS FOR TIME STEP       79 IN STRESS PERIOD       1

 MAXIMUM HEAD CHANGE FOR EACH ITERATION:

    HEAD CHANGE   HEAD CHANGE   HEAD CHANGE   HEAD CHANGE   HEAD CHANGE
  LAYER,ROW,COL LAYER,ROW,COL LAYER,ROW,COL LAYER,ROW,COL LAYER,ROW,COL
 ----------------------------------------------------------------------
    -0.8362E-01
  (  1,167, 48)


 MAXIMUM HEAD CHANGE IN FWL5 FOR EACH ITERATION:

    HEAD CHANGE   HEAD CHANGE   HEAD CHANGE   HEAD CHANGE   HEAD CHANGE
  WELL,  LAYER  WELL,  LAYER  WELL,  LAYER  WELL,  LAYER  WELL,  LAYER 
 ----------------------------------------------------------------------
      0.000    
  (   167,  1)



          TIME SUMMARY AT END OF TIME STEP        79 IN STRESS PERIOD         1
                    SECONDS       MINUTES        HOURS         DAYS          YEARS
                    -------------------------------------------------------------------
   TIME STEP LENGTH 1.8788856E+07  313147.6      5219.126      217.4636     0.5953829    
 STRESS PERIOD TIME 2.8526010E+08  4754335.      79238.91      3301.621      9.039347    
         TOTAL TIME 2.8526010E+08  4754335.      79238.91      3301.621      9.039347    
 OUTER ITERATION NUMBER:     1
 BACKTRACK COUNT=  0 ACCEPTED RESIDUAL=   1180.452    INCOMING RESIDUAL=   1180.452    IBT=  0
 MAT1S did not converge
 OUTER ITERATION NUMBER:     2
 BACKTRACK COUNT=  0 ACCEPTED RESIDUAL=   1.505026    INCOMING RESIDUAL=   1.505026    IBT=  0
 MAT1S did not converge
 OUTER ITERATION NUMBER:     3
 BACKTRACK COUNT=  0 ACCEPTED RESIDUAL=  0.4865412    INCOMING RESIDUAL=  0.4865412    IBT=  0
 MAT1S did not converge
     3 ITERATIONS FOR TIME STEP       80 IN STRESS PERIOD       1

 MAXIMUM HEAD CHANGE FOR EACH ITERATION:

    HEAD CHANGE   HEAD CHANGE   HEAD CHANGE   HEAD CHANGE   HEAD CHANGE
  LAYER,ROW,COL LAYER,ROW,COL LAYER,ROW,COL LAYER,ROW,COL LAYER,ROW,COL
 ----------------------------------------------------------------------
    -0.1914       -0.3686        0.7263E-01
  ( 12,236, 55) (  1,236, 55) (  1,236, 55)


 MAXIMUM HEAD CHANGE IN FWL5 FOR EACH ITERATION:

    HEAD CHANGE   HEAD CHANGE   HEAD CHANGE   HEAD CHANGE   HEAD CHANGE
  WELL,  LAYER  WELL,  LAYER  WELL,  LAYER  WELL,  LAYER  WELL,  LAYER 
 ----------------------------------------------------------------------
      0.000         0.000         0.000    
  (   236, 12) (   236,  1) (   236,  1)



          TIME SUMMARY AT END OF TIME STEP        80 IN STRESS PERIOD         1
                    SECONDS       MINUTES        HOURS         DAYS          YEARS
                    -------------------------------------------------------------------
   TIME STEP LENGTH 2.0667742E+07  344462.4      5741.040      239.2100     0.6549212    
 STRESS PERIOD TIME 3.0592784E+08  5098798.      84979.96      3540.832      9.694269    
         TOTAL TIME 3.0592784E+08  5098798.      84979.96      3540.832      9.694269    
 OUTER ITERATION NUMBER:     1
 BACKTRACK COUNT=  0 ACCEPTED RESIDUAL=   799.0197    INCOMING RESIDUAL=   799.0197    IBT=  0
 MAT1S did not converge
 OUTER ITERATION NUMBER:     2
 BACKTRACK COUNT=  0 ACCEPTED RESIDUAL=   2.909686    INCOMING RESIDUAL=   2.909686    IBT=  0
 MAT1S did not converge
 OUTER ITERATION NUMBER:     3
 BACKTRACK COUNT=  0 ACCEPTED RESIDUAL=  0.4801462    INCOMING RESIDUAL=  0.4801462    IBT=  0
 MAT1S did not converge
     3 ITERATIONS FOR TIME STEP       81 IN STRESS PERIOD       1

 MAXIMUM HEAD CHANGE FOR EACH ITERATION:

    HEAD CHANGE   HEAD CHANGE   HEAD CHANGE   HEAD CHANGE   HEAD CHANGE
  LAYER,ROW,COL LAYER,ROW,COL LAYER,ROW,COL LAYER,ROW,COL LAYER,ROW,COL
 ----------------------------------------------------------------------
    -0.6556        0.1700        0.7857E-01
  ( 12,236, 55) ( 12,236, 55) (  1,255, 79)


 MAXIMUM HEAD CHANGE IN FWL5 FOR EACH ITERATION:

    HEAD CHANGE   HEAD CHANGE   HEAD CHANGE   HEAD CHANGE   HEAD CHANGE
  WELL,  LAYER  WELL,  LAYER  WELL,  LAYER  WELL,  LAYER  WELL,  LAYER 
 ----------------------------------------------------------------------
      0.000         0.000         0.000    
  (   236, 12) (   236, 12) (   255,  1)



          TIME SUMMARY AT END OF TIME STEP        81 IN STRESS PERIOD         1
                    SECONDS       MINUTES        HOURS         DAYS          YEARS
                    -------------------------------------------------------------------
   TIME STEP LENGTH 2.2734516E+07  378908.6      6315.143      263.1310     0.7204133    
 STRESS PERIOD TIME 3.2866234E+08  5477706.      91295.09      3803.962      10.41468    
         TOTAL TIME 3.2866234E+08  5477706.      91295.09      3803.962      10.41468    
 OUTER ITERATION NUMBER:     1
 BACKTRACK COUNT=  0 ACCEPTED RESIDUAL=   1568.240    INCOMING RESIDUAL=   1568.240    IBT=  0
 MAT1S did not converge
 OUTER ITERATION NUMBER:     2
 BACKTRACK COUNT=  0 ACCEPTED RESIDUAL=   2.649334    INCOMING RESIDUAL=   2.649334    IBT=  0
 Convergence in           10  iterations
     2 ITERATIONS FOR TIME STEP       82 IN STRESS PERIOD       1

 MAXIMUM HEAD CHANGE FOR EACH ITERATION:

    HEAD CHANGE   HEAD CHANGE   HEAD CHANGE   HEAD CHANGE   HEAD CHANGE
  LAYER,ROW,COL LAYER,ROW,COL LAYER,ROW,COL LAYER,ROW,COL LAYER,ROW,COL
 ----------------------------------------------------------------------
    -0.3624        0.4055E-01
  ( 12,236, 55) ( 12,236, 55)


 MAXIMUM HEAD CHANGE IN FWL5 FOR EACH ITERATION:

    HEAD CHANGE   HEAD CHANGE   HEAD CHANGE   HEAD CHANGE   HEAD CHANGE
  WELL,  LAYER  WELL,  LAYER  WELL,  LAYER  WELL,  LAYER  WELL,  LAYER 
 ----------------------------------------------------------------------
      0.000         0.000    
  (   236, 12) (   236, 12)



          TIME SUMMARY AT END OF TIME STEP        82 IN STRESS PERIOD         1
                    SECONDS       MINUTES        HOURS         DAYS          YEARS
                    -------------------------------------------------------------------
   TIME STEP LENGTH 2.5007970E+07  416799.5      6946.658      289.4441     0.7924547    
 STRESS PERIOD TIME 3.5367030E+08  5894505.      98241.75      4093.406      11.20714    
         TOTAL TIME 3.5367030E+08  5894505.      98241.75      4093.406      11.20714    
 OUTER ITERATION NUMBER:     1
 BACKTRACK COUNT=  0 ACCEPTED RESIDUAL=   1104.840    INCOMING RESIDUAL=   1104.840    IBT=  0
 MAT1S did not converge
 OUTER ITERATION NUMBER:     2
 BACKTRACK COUNT=  0 ACCEPTED RESIDUAL=   3.541440    INCOMING RESIDUAL=   3.541440    IBT=  0
 MAT1S did not converge
 OUTER ITERATION NUMBER:     3
 BACKTRACK COUNT=  0 ACCEPTED RESIDUAL=   1.792828    INCOMING RESIDUAL=   1.792828    IBT=  0
 MAT1S did not converge
 OUTER ITERATION NUMBER:     4
 BACKTRACK COUNT=  0 ACCEPTED RESIDUAL=   1.011140    INCOMING RESIDUAL=   1.011140    IBT=  0
 MAT1S did not converge
     4 ITERATIONS FOR TIME STEP       83 IN STRESS PERIOD       1

 MAXIMUM HEAD CHANGE FOR EACH ITERATION:

    HEAD CHANGE   HEAD CHANGE   HEAD CHANGE   HEAD CHANGE   HEAD CHANGE
  LAYER,ROW,COL LAYER,ROW,COL LAYER,ROW,COL LAYER,ROW,COL LAYER,ROW,COL
 ----------------------------------------------------------------------
    -0.2196       -0.1308       -0.1723        0.7953E-01
  (  1,236, 55) (  1,235, 54) ( 12,188,194) ( 12,188,194)


 MAXIMUM HEAD CHANGE IN FWL5 FOR EACH ITERATION:

    HEAD CHANGE   HEAD CHANGE   HEAD CHANGE   HEAD CHANGE   HEAD CHANGE
  WELL,  LAYER  WELL,  LAYER  WELL,  LAYER  WELL,  LAYER  WELL,  LAYER 
 ----------------------------------------------------------------------
      0.000         0.000         0.000         0.000    
  (   236,  1) (   235,  1) (   188, 12) (   188, 12)



          TIME SUMMARY AT END OF TIME STEP        83 IN STRESS PERIOD         1
                    SECONDS       MINUTES        HOURS         DAYS          YEARS
                    -------------------------------------------------------------------
   TIME STEP LENGTH 2.7508766E+07  458479.4      7641.324      318.3885     0.8717002    
 STRESS PERIOD TIME 3.8117907E+08  6352984.      105883.1      4411.795      12.07884    
         TOTAL TIME 3.8117907E+08  6352984.      105883.1      4411.795      12.07884    
 OUTER ITERATION NUMBER:     1
 BACKTRACK COUNT=  0 ACCEPTED RESIDUAL=   1054.303    INCOMING RESIDUAL=   1054.303    IBT=  0
 MAT1S did not converge
 OUTER ITERATION NUMBER:     2
 BACKTRACK COUNT=  0 ACCEPTED RESIDUAL=   4.157541    INCOMING RESIDUAL=   4.157541    IBT=  0
 MAT1S did not converge
 OUTER ITERATION NUMBER:     3
 BACKTRACK COUNT=  0 ACCEPTED RESIDUAL=   3.125769    INCOMING RESIDUAL=   3.125769    IBT=  0
 MAT1S did not converge
 OUTER ITERATION NUMBER:     4
 BACKTRACK COUNT=  0 ACCEPTED RESIDUAL=   1.417754    INCOMING RESIDUAL=   1.417754    IBT=  0
 MAT1S did not converge
 OUTER ITERATION NUMBER:     5
 BACKTRACK COUNT=  0 ACCEPTED RESIDUAL=   1.018257    INCOMING RESIDUAL=   1.018257    IBT=  0
 MAT1S did not converge
     5 ITERATIONS FOR TIME STEP       84 IN STRESS PERIOD       1

 MAXIMUM HEAD CHANGE FOR EACH ITERATION:

    HEAD CHANGE   HEAD CHANGE   HEAD CHANGE   HEAD CHANGE   HEAD CHANGE
  LAYER,ROW,COL LAYER,ROW,COL LAYER,ROW,COL LAYER,ROW,COL LAYER,ROW,COL
 ----------------------------------------------------------------------
    -0.2509        0.1345       -0.1101       -0.1028        0.9589E-01
  (  1,235, 54) (  1,186,191) (  1,186,191) ( 12,188,194) ( 12,188,194)


 MAXIMUM HEAD CHANGE IN FWL5 FOR EACH ITERATION:

    HEAD CHANGE   HEAD CHANGE   HEAD CHANGE   HEAD CHANGE   HEAD CHANGE
  WELL,  LAYER  WELL,  LAYER  WELL,  LAYER  WELL,  LAYER  WELL,  LAYER 
 ----------------------------------------------------------------------
      0.000         0.000         0.000         0.000         0.000    
  (   235,  1) (   186,  1) (   186,  1) (   188, 12) (   188, 12)



          TIME SUMMARY AT END OF TIME STEP        84 IN STRESS PERIOD         1
                    SECONDS       MINUTES        HOURS         DAYS          YEARS
                    -------------------------------------------------------------------
   TIME STEP LENGTH 2.7648000E+07  460800.0      7680.000      320.0000     0.8761122    
 STRESS PERIOD TIME 4.0882707E+08  6813784.      113563.1      4731.795      12.95495    
         TOTAL TIME 4.0882707E+08  6813784.      113563.1      4731.795      12.95495    
 OUTER ITERATION NUMBER:     1
 BACKTRACK COUNT=  0 ACCEPTED RESIDUAL=   908.5273    INCOMING RESIDUAL=   908.5273    IBT=  0
 MAT1S did not converge
 OUTER ITERATION NUMBER:     2
 BACKTRACK COUNT=  0 ACCEPTED RESIDUAL=   1.519788    INCOMING RESIDUAL=   1.519788    IBT=  0
 Convergence in           12  iterations
     2 ITERATIONS FOR TIME STEP       85 IN STRESS PERIOD       1

 MAXIMUM HEAD CHANGE FOR EACH ITERATION:

    HEAD CHANGE   HEAD CHANGE   HEAD CHANGE   HEAD CHANGE   HEAD CHANGE
  LAYER,ROW,COL LAYER,ROW,COL LAYER,ROW,COL LAYER,ROW,COL LAYER,ROW,COL
 ----------------------------------------------------------------------
    -0.1597       -0.3707E-01
  ( 12,235, 54) ( 12,164, 59)


 MAXIMUM HEAD CHANGE IN FWL5 FOR EACH ITERATION:

    HEAD CHANGE   HEAD CHANGE   HEAD CHANGE   HEAD CHANGE   HEAD CHANGE
  WELL,  LAYER  WELL,  LAYER  WELL,  LAYER  WELL,  LAYER  WELL,  LAYER 
 ----------------------------------------------------------------------
      0.000         0.000    
  (   235, 12) (   164, 12)
 UBUDSV SAVING "         STORAGE" ON UNIT    50 AT TIME STEP    85, STRESS PERIOD     1
 UBUDSV SAVING "   CONSTANT HEAD" ON UNIT    50 AT TIME STEP    85, STRESS PERIOD     1
 UBUDSV SAVING "FLOW RIGHT FACE " ON UNIT    50 AT TIME STEP    85, STRESS PERIOD     1
 UBUDSV SAVING "FLOW FRONT FACE " ON UNIT    50 AT TIME STEP    85, STRESS PERIOD     1
 UBUDSV SAVING "FLOW LOWER FACE " ON UNIT    50 AT TIME STEP    85, STRESS PERIOD     1
 UBUDSV SAVING "     WL5 STORAGE" ON UNIT   155 AT TIME STEP    85, STRESS PERIOD     1
 UBUDSV SAVING "        WL5 FLOW" ON UNIT   155 AT TIME STEP    85, STRESS PERIOD     1
 UBUDSV SAVING "FLOW WL5 BOT FCE" ON UNIT   155 AT TIME STEP    85, STRESS PERIOD     1
 UBUDSV SAVING "WL5 CELL TO WELL" ON UNIT   155 AT TIME STEP    85, STRESS PERIOD     1
 UBUDSV SAVING "           WELLS" ON UNIT    50 AT TIME STEP    85, STRESS PERIOD     1
 UBUDSV SAVING "          DRAINS" ON UNIT    50 AT TIME STEP    85, STRESS PERIOD     1
 UBUDSV SAVING "        RECHARGE" ON UNIT    50 AT TIME STEP    85, STRESS PERIOD     1

 HEAD WILL BE SAVED ON UNIT  30 AT END OF TIME STEP        85, STRESS PERIOD       1

 DRAWDOWN WILL BE SAVED ON UNIT  31 AT END OF TIME STEP        85, STRESS PERIOD       1
1
  VOLUMETRIC BUDGET FOR ENTIRE MODEL AT END OF TIME STEP      85 IN STRESS PERIOD       1
  -----------------------------------------------------------------------------

     CUMULATIVE VOLUMES      L**3       RATES FOR THIS TIME STEP      L**3/T
     ------------------                 ------------------------

           IN:                                      IN:
           ---                                      ---
             STORAGE =      700365.5625               STORAGE =          22.7060
       CONSTANT HEAD =           0.0000         CONSTANT HEAD =           0.0000
         WL5 STORAGE =           0.0000           WL5 STORAGE =           0.0000
            WL5 FLOW =           0.0000              WL5 FLOW =           0.0000
               WELLS =     1696585.1250                 WELLS =         339.3170
              DRAINS =           0.0000                DRAINS =           0.0000
            RECHARGE =   485011552.0000              RECHARGE =       97002.3125

            TOTAL IN =   487408502.6875              TOTAL IN =       97364.3356

          OUT:                                     OUT:
          ----                                     ----
             STORAGE =     2041050.2500               STORAGE =         295.9458
       CONSTANT HEAD =           0.0000         CONSTANT HEAD =           0.0000
         WL5 STORAGE =           0.0000           WL5 STORAGE =           0.0000
            WL5 FLOW =           0.0000              WL5 FLOW =           0.0000
               WELLS =      470000.0312                 WELLS =          94.0000
              DRAINS =   484829216.0000                DRAINS =       97038.9609
            RECHARGE =           0.0000              RECHARGE =           0.0000

           TOTAL OUT =   487340266.2812             TOTAL OUT =       97428.9067

            IN - OUT =       68236.4062              IN - OUT =         -64.5712

 PERCENT DISCREPANCY =           0.01     PERCENT DISCREPANCY =          -0.07






          TIME SUMMARY AT END OF TIME STEP        85 IN STRESS PERIOD         1
                    SECONDS       MINUTES        HOURS         DAYS          YEARS
                    -------------------------------------------------------------------
   TIME STEP LENGTH 2.3172916E+07  386215.3      6436.921      268.2050     0.7343054    
 STRESS PERIOD TIME 4.3200000E+08  7200000.      120000.0      5000.000      13.68925    
         TOTAL TIME 4.3200000E+08  7200000.      120000.0      5000.000      13.68925    
1
 OUTER ITERATION NUMBER:     1
 BACKTRACK COUNT=  0 ACCEPTED RESIDUAL=   1198.322    INCOMING RESIDUAL=   1198.322    IBT=  0
 MAT1S did not converge
 OUTER ITERATION NUMBER:     2
 BACKTRACK COUNT=  0 ACCEPTED RESIDUAL=   17.92282    INCOMING RESIDUAL=   17.92282    IBT=  0
 MAT1S did not converge
     2 ITERATIONS FOR TIME STEP       86 IN STRESS PERIOD       1

 MAXIMUM HEAD CHANGE FOR EACH ITERATION:

    HEAD CHANGE   HEAD CHANGE   HEAD CHANGE   HEAD CHANGE   HEAD CHANGE
  LAYER,ROW,COL LAYER,ROW,COL LAYER,ROW,COL LAYER,ROW,COL LAYER,ROW,COL
 ----------------------------------------------------------------------
    -0.1444       -0.4480E-01
  ( 12,235, 54) (  1,164, 59)


 MAXIMUM HEAD CHANGE IN FWL5 FOR EACH ITERATION:

    HEAD CHANGE   HEAD CHANGE   HEAD CHANGE   HEAD CHANGE   HEAD CHANGE
  WELL,  LAYER  WELL,  LAYER  WELL,  LAYER  WELL,  LAYER  WELL,  LAYER 
 ----------------------------------------------------------------------
      0.000         0.000    
  (   235, 12) (   164,  1)



          TIME SUMMARY AT END OF TIME STEP        86 IN STRESS PERIOD         1
                    SECONDS       MINUTES        HOURS         DAYS          YEARS
                    -------------------------------------------------------------------
   TIME STEP LENGTH 2.5490210E+07  424836.8      7080.614      295.0256     0.8077361    
 STRESS PERIOD TIME 4.5749021E+08  7624837.      127080.6      5295.026      14.49699    
         TOTAL TIME 4.5749021E+08  7624837.      127080.6      5295.026      14.49699    
 OUTER ITERATION NUMBER:     1
 BACKTRACK COUNT=  0 ACCEPTED RESIDUAL=   1460.345    INCOMING RESIDUAL=   1460.345    IBT=  0
 MAT1S did not converge
 OUTER ITERATION NUMBER:     2
 BACKTRACK COUNT=  0 ACCEPTED RESIDUAL=   3.249449    INCOMING RESIDUAL=   3.249449    IBT=  0
